<?xml version="1.0" encoding="UTF-8"?>

<!-- generated on Wed May 15 15:22:32 2019 by Eclipse SUMO netconvert Version 1.0.1
<configuration xmlns:xsi="http://www.w3.org/2001/XMLSchema-instance" xsi:noNamespaceSchemaLocation="http://sumo.dlr.de/xsd/netconvertConfiguration.xsd">

    <input>
        <osm-files value="p.osm.xml"/>
    </input>

    <output>
        <output-file value="p.net.xml"/>
    </output>

    <projection>
        <proj.utm value="true"/>
    </projection>

</configuration>
-->

<net version="1.0" junctionCornerDetail="5" limitTurnSpeed="5.50" xmlns:xsi="http://www.w3.org/2001/XMLSchema-instance" xsi:noNamespaceSchemaLocation="http://sumo.dlr.de/xsd/net_file.xsd">

    <location netOffset="-697751.77,-5709645.51" convBoundary="0.00,0.00,1923.36,2198.04" origBoundary="-0.150605,51.502998,-0.122191,51.522959" projParameter="+proj=utm +zone=30 +ellps=WGS84 +datum=WGS84 +units=m +no_defs"/>

    <type id="highway.bridleway" priority="1" numLanes="1" speed="2.78" allow="pedestrian" oneway="1" width="2.00"/>
    <type id="highway.bus_guideway" priority="1" numLanes="1" speed="27.78" allow="bus" oneway="1"/>
    <type id="highway.cycleway" priority="1" numLanes="1" speed="8.33" allow="bicycle" oneway="0" width="1.00"/>
    <type id="highway.footway" priority="1" numLanes="1" speed="2.78" allow="pedestrian" oneway="1" width="2.00"/>
    <type id="highway.ford" priority="1" numLanes="1" speed="2.78" allow="army" oneway="0"/>
    <type id="highway.living_street" priority="3" numLanes="1" speed="2.78" disallow="tram rail_urban rail rail_electric ship" oneway="0"/>
    <type id="highway.motorway" priority="13" numLanes="2" speed="44.44" allow="private emergency authority army vip passenger hov taxi bus coach delivery truck trailer motorcycle evehicle custom1 custom2" oneway="1"/>
    <type id="highway.motorway_link" priority="12" numLanes="1" speed="22.22" allow="private emergency authority army vip passenger hov taxi bus coach delivery truck trailer motorcycle evehicle custom1 custom2" oneway="1"/>
    <type id="highway.path" priority="1" numLanes="1" speed="2.78" allow="bicycle pedestrian" oneway="1" width="2.00"/>
    <type id="highway.pedestrian" priority="1" numLanes="1" speed="2.78" allow="pedestrian" oneway="1" width="2.00"/>
    <type id="highway.primary" priority="9" numLanes="2" speed="27.78" disallow="tram rail_urban rail rail_electric ship" oneway="0"/>
    <type id="highway.primary_link" priority="8" numLanes="1" speed="22.22" disallow="tram rail_urban rail rail_electric ship" oneway="0"/>
    <type id="highway.raceway" priority="14" numLanes="2" speed="83.33" allow="vip" oneway="0"/>
    <type id="highway.residential" priority="4" numLanes="1" speed="13.89" disallow="tram rail_urban rail rail_electric ship" oneway="0"/>
    <type id="highway.secondary" priority="7" numLanes="2" speed="27.78" disallow="tram rail_urban rail rail_electric ship" oneway="0"/>
    <type id="highway.secondary_link" priority="6" numLanes="1" speed="22.22" disallow="tram rail_urban rail rail_electric ship" oneway="0"/>
    <type id="highway.service" priority="2" numLanes="1" speed="5.56" allow="delivery bicycle pedestrian" oneway="0"/>
    <type id="highway.stairs" priority="1" numLanes="1" speed="1.39" allow="pedestrian" oneway="1" width="2.00"/>
    <type id="highway.step" priority="1" numLanes="1" speed="1.39" allow="pedestrian" oneway="1" width="2.00"/>
    <type id="highway.steps" priority="1" numLanes="1" speed="1.39" allow="pedestrian" oneway="1" width="2.00"/>
    <type id="highway.tertiary" priority="6" numLanes="1" speed="22.22" disallow="tram rail_urban rail rail_electric ship" oneway="0"/>
    <type id="highway.tertiary_link" priority="5" numLanes="1" speed="22.22" disallow="tram rail_urban rail rail_electric ship" oneway="0"/>
    <type id="highway.track" priority="1" numLanes="1" speed="5.56" disallow="tram rail_urban rail rail_electric ship" oneway="0"/>
    <type id="highway.trunk" priority="11" numLanes="2" speed="27.78" disallow="tram rail_urban rail rail_electric bicycle pedestrian ship" oneway="0"/>
    <type id="highway.trunk_link" priority="10" numLanes="1" speed="22.22" disallow="tram rail_urban rail rail_electric bicycle pedestrian ship" oneway="0"/>
    <type id="highway.unclassified" priority="5" numLanes="1" speed="13.89" disallow="tram rail_urban rail rail_electric ship" oneway="0"/>
    <type id="highway.unsurfaced" priority="1" numLanes="1" speed="8.33" disallow="tram rail_urban rail rail_electric ship" oneway="0"/>
    <type id="railway.light_rail" priority="15" numLanes="1" speed="27.78" allow="rail_urban" oneway="1"/>
    <type id="railway.preserved" priority="15" numLanes="1" speed="27.78" allow="rail" oneway="1"/>
    <type id="railway.rail" priority="15" numLanes="1" speed="83.33" allow="rail rail_electric" oneway="1"/>
    <type id="railway.subway" priority="15" numLanes="1" speed="27.78" allow="rail_urban" oneway="1"/>
    <type id="railway.tram" priority="15" numLanes="1" speed="13.89" allow="tram" oneway="1"/>

    <edge id=":107777_0" function="internal">
        <lane id=":107777_0_0" index="0" disallow="tram rail_urban rail rail_electric ship" speed="3.65" length="4.67" shape="1363.39,337.79 1363.91,339.14 1363.78,340.02 1362.99,340.45 1361.55,340.41"/>
    </edge>
    <edge id=":107793_0" function="internal">
        <lane id=":107793_0_0" index="0" disallow="tram rail_urban rail rail_electric ship" speed="3.65" length="4.67" shape="1269.92,911.09 1268.70,911.86 1267.81,911.90 1267.24,911.21 1266.99,909.79"/>
    </edge>
    <edge id=":107796_0" function="internal">
        <lane id=":107796_0_0" index="0" disallow="tram rail_urban rail rail_electric ship" speed="13.41" length="14.14" shape="1255.35,488.36 1243.29,480.93"/>
        <lane id=":107796_0_1" index="1" disallow="tram rail_urban rail rail_electric ship" speed="13.41" length="14.14" shape="1257.01,485.63 1244.98,478.22"/>
    </edge>
    <edge id=":107796_2" function="internal">
        <lane id=":107796_2_0" index="0" disallow="tram rail_urban rail rail_electric ship" speed="7.02" length="10.41" shape="1257.01,485.63 1254.49,483.68 1253.08,481.61 1252.79,479.40 1253.60,477.05"/>
    </edge>
    <edge id=":107796_3" function="internal">
        <lane id=":107796_3_0" index="0" disallow="tram rail_urban rail rail_electric ship" speed="5.65" length="6.41" shape="1246.81,485.69 1247.00,484.68 1246.48,483.56 1245.24,482.31 1243.29,480.93"/>
    </edge>
    <edge id=":107796_4" function="internal">
        <lane id=":107796_4_0" index="0" disallow="tram rail_urban rail rail_electric ship" speed="13.65" length="11.05" shape="1249.58,487.30 1251.03,484.30 1251.71,482.02 1252.32,479.82 1253.60,477.05"/>
    </edge>
    <edge id=":107797_0" function="internal">
        <lane id=":107797_0_0" index="0" disallow="tram rail_urban rail rail_electric ship" speed="8.02" length="13.32" shape="1242.85,715.28 1240.25,712.77 1238.99,710.00 1239.06,706.95 1240.47,703.62"/>
    </edge>
    <edge id=":107797_1" function="internal">
        <lane id=":107797_1_0" index="0" disallow="tram rail_urban rail rail_electric ship" speed="6.52" length="8.48" shape="1244.73,712.68 1243.07,711.09 1242.27,709.32 1242.31,707.38 1243.21,705.27"/>
    </edge>
    <edge id=":107797_2" function="internal">
        <lane id=":107797_2_0" index="0" disallow="tram rail_urban rail rail_electric ship" speed="13.41" length="10.13" shape="1233.95,711.32 1235.28,708.65 1235.85,706.66 1236.41,704.65 1237.72,701.98"/>
        <lane id=":107797_2_1" index="1" disallow="tram rail_urban rail rail_electric ship" speed="13.41" length="10.13" shape="1236.68,712.99 1238.02,710.31 1238.59,708.31 1239.15,706.31 1240.47,703.62"/>
    </edge>
    <edge id=":107798_0" function="internal">
        <lane id=":107798_0_0" index="0" disallow="tram rail_urban rail rail_electric ship" speed="11.38" length="14.73" shape="1157.76,799.33 1162.26,800.25 1166.14,800.41 1169.39,799.81 1172.01,798.45"/>
    </edge>
    <edge id=":107798_1" function="internal">
        <lane id=":107798_1_0" index="0" disallow="tram rail_urban rail rail_electric ship" speed="12.42" length="17.64" shape="1156.93,802.42 1162.17,803.46 1166.75,803.57 1170.68,802.75 1173.94,801.01"/>
    </edge>
    <edge id=":107798_2" function="internal">
        <lane id=":107798_2_0" index="0" disallow="tram rail_urban rail rail_electric ship" speed="13.41" length="18.19" shape="1156.93,802.42 1162.74,803.73 1167.35,804.38 1171.23,804.83 1174.84,805.50"/>
    </edge>
    <edge id=":107798_3" function="internal">
        <lane id=":107798_3_0" index="0" disallow="tram rail_urban rail rail_electric ship" speed="13.41" length="15.07" shape="1159.32,805.81 1163.29,803.98 1165.96,802.63 1168.49,801.03 1172.01,798.45"/>
        <lane id=":107798_3_1" index="1" disallow="tram rail_urban rail rail_electric ship" speed="13.41" length="15.07" shape="1160.66,808.72 1164.81,806.80 1167.61,805.39 1170.26,803.71 1173.94,801.01"/>
    </edge>
    <edge id=":107798_5" function="internal">
        <lane id=":107798_5_0" index="0" disallow="tram rail_urban rail rail_electric ship" speed="13.41" length="14.89" shape="1160.66,808.72 1164.98,806.75 1168.41,805.50 1171.51,805.05 1174.84,805.50"/>
    </edge>
    <edge id=":107799_0" function="internal">
        <lane id=":107799_0_0" index="0" disallow="tram rail_urban rail rail_electric ship" speed="5.57" length="7.98" shape="1244.24,820.62 1242.96,822.95 1242.69,824.79 1243.43,826.14 1245.16,826.99"/>
    </edge>
    <edge id=":107799_1" function="internal">
        <lane id=":107799_1_0" index="0" disallow="tram rail_urban rail rail_electric ship" speed="13.41" length="9.87" shape="1235.77,823.97 1245.16,826.99"/>
    </edge>
    <edge id=":107800_0" function="internal">
        <lane id=":107800_0_0" index="0" disallow="tram rail_urban rail rail_electric ship" speed="13.41" length="9.72" shape="1245.35,827.05 1254.61,830.00"/>
    </edge>
    <edge id=":107800_1" function="internal">
        <lane id=":107800_1_0" index="0" disallow="tram rail_urban rail rail_electric ship" speed="5.83" length="7.85" shape="1245.35,827.05 1246.99,827.87 1247.83,829.22 1247.86,831.11 1247.08,833.52"/>
    </edge>
    <edge id=":107801_0" function="internal">
        <lane id=":107801_0_0" index="0" disallow="tram rail_urban rail rail_electric ship" speed="6.93" length="10.25" shape="1297.97,752.32 1295.71,751.35 1293.52,751.50 1291.40,752.76 1289.35,755.13"/>
    </edge>
    <edge id=":107801_1" function="internal">
        <lane id=":107801_1_0" index="0" disallow="tram rail_urban rail rail_electric ship" speed="13.41" length="11.40" shape="1297.97,752.32 1295.27,750.83 1293.05,749.99 1290.75,749.06 1287.79,747.27"/>
    </edge>
    <edge id=":107801_2" function="internal">
        <lane id=":107801_2_0" index="0" disallow="tram rail_urban rail rail_electric ship" speed="13.89" length="14.34" shape="1297.21,743.14 1289.35,755.13"/>
    </edge>
    <edge id=":107801_3" function="internal">
        <lane id=":107801_3_0" index="0" disallow="tram rail_urban rail rail_electric ship" speed="6.35" length="8.93" shape="1297.21,743.14 1295.62,745.03 1293.83,745.91 1291.84,745.78 1289.64,744.66"/>
    </edge>
    <edge id=":107802_0" function="internal">
        <lane id=":107802_0_0" index="0" disallow="tram rail_urban rail rail_electric ship" speed="6.42" length="9.04" shape="1281.92,628.29 1282.88,626.00 1282.86,623.97 1281.86,622.21 1279.86,620.72"/>
    </edge>
    <edge id=":107802_1" function="internal">
        <lane id=":107802_1_0" index="0" disallow="tram rail_urban rail rail_electric ship" speed="7.25" length="11.80" shape="1281.92,628.29 1283.60,624.79 1284.07,621.90 1283.34,619.60 1281.40,617.91"/>
    </edge>
    <edge id=":107802_2" function="internal">
        <lane id=":107802_2_0" index="0" disallow="tram rail_urban rail rail_electric ship" speed="13.41" length="14.31" shape="1281.92,628.29 1289.43,616.04"/>
        <lane id=":107802_2_1" index="1" disallow="tram rail_urban rail rail_electric ship" speed="13.41" length="14.31" shape="1284.66,629.94 1292.14,617.74"/>
        <lane id=":107802_2_2" index="2" disallow="tram rail_urban rail rail_electric ship" speed="13.41" length="14.31" shape="1287.41,631.59 1294.85,619.44"/>
    </edge>
    <edge id=":107806_0" function="internal">
        <lane id=":107806_0_0" index="0" disallow="tram rail_urban rail rail_electric ship" speed="3.65" length="4.67" shape="1342.95,1073.03 1343.53,1074.35 1343.44,1075.24 1342.67,1075.70 1341.23,1075.73"/>
    </edge>
    <edge id=":107809_0" function="internal">
        <lane id=":107809_0_0" index="0" disallow="tram rail_urban rail rail_electric ship" speed="13.41" length="10.84" shape="1182.41,964.50 1180.02,962.28 1178.47,960.66 1177.01,958.97 1174.84,956.52"/>
        <lane id=":107809_0_1" index="1" disallow="tram rail_urban rail rail_electric ship" speed="13.41" length="10.84" shape="1184.54,962.12 1182.23,959.96 1180.73,958.39 1179.31,956.75 1177.22,954.37"/>
    </edge>
    <edge id=":107809_2" function="internal">
        <lane id=":107809_2_0" index="0" disallow="tram rail_urban rail rail_electric ship" speed="3.65" length="2.34" shape="1184.54,962.12 1184.18,960.72 1184.42,959.86"/>
    </edge>
    <edge id=":107809_8" function="internal">
        <lane id=":107809_8_0" index="0" speed="3.65" length="2.34" shape="1184.42,959.86 1185.25,959.53 1186.68,959.74"/>
    </edge>
    <edge id=":107809_3" function="internal">
        <lane id=":107809_3_0" index="0" disallow="tram rail_urban rail rail_electric ship" speed="7.90" length="9.12" shape="1187.09,948.91 1186.59,951.48 1186.72,953.75 1187.46,955.71 1188.82,957.36"/>
    </edge>
    <edge id=":107809_4" function="internal">
        <lane id=":107809_4_0" index="0" disallow="tram rail_urban rail rail_electric ship" speed="7.02" length="15.15" shape="1187.09,948.91 1185.11,953.88 1182.80,956.45 1180.17,956.62 1177.22,954.37"/>
    </edge>
    <edge id=":107809_5" function="internal">
        <lane id=":107809_5_0" index="0" disallow="tram rail_urban rail rail_electric ship" speed="13.41" length="10.17" shape="1181.96,950.08 1183.93,952.31 1185.25,953.86 1186.65,955.33 1188.82,957.36"/>
        <lane id=":107809_5_1" index="1" disallow="tram rail_urban rail rail_electric ship" speed="13.41" length="10.17" shape="1179.59,952.23 1181.62,954.53 1182.99,956.12 1184.44,957.65 1186.68,959.74"/>
    </edge>
    <edge id=":107809_7" function="internal">
        <lane id=":107809_7_0" index="0" disallow="tram rail_urban rail rail_electric ship" speed="3.65" length="2.34" shape="1179.59,952.23 1179.80,953.65 1179.48,954.49"/>
    </edge>
    <edge id=":107809_9" function="internal">
        <lane id=":107809_9_0" index="0" speed="3.65" length="2.34" shape="1179.48,954.49 1178.61,954.73 1177.22,954.37"/>
    </edge>
    <edge id=":107813_0" function="internal">
        <lane id=":107813_0_0" index="0" allow="bus bicycle" speed="5.94" length="13.56" shape="1130.32,874.79 1120.97,864.97"/>
    </edge>
    <edge id=":107813_1" function="internal">
        <lane id=":107813_1_0" index="0" disallow="tram rail_urban rail rail_electric ship" speed="9.68" length="10.85" shape="1131.72,873.11 1130.13,869.18 1129.12,866.15 1128.70,864.02 1128.86,862.78"/>
    </edge>
    <edge id=":107813_2" function="internal">
        <lane id=":107813_2_0" index="0" disallow="tram rail_urban rail rail_electric ship" speed="13.41" length="14.70" shape="1126.77,862.25 1127.50,866.50 1126.30,869.78 1125.16,873.01 1126.12,877.15"/>
        <lane id=":107813_2_1" index="1" disallow="tram rail_urban rail rail_electric ship" speed="13.41" length="14.70" shape="1123.87,863.61 1124.37,867.38 1122.94,870.27 1121.59,873.12 1122.28,876.79"/>
    </edge>
    <edge id=":107813_4" function="internal">
        <lane id=":107813_4_0" index="0" disallow="tram rail_urban rail rail_electric ship" speed="13.65" length="13.50" shape="1120.40,873.40 1121.98,870.56 1123.02,867.92 1124.17,864.97 1126.09,861.18"/>
    </edge>
    <edge id=":107816_0" function="internal">
        <lane id=":107816_0_0" index="0" disallow="tram rail_urban rail rail_electric ship" speed="3.32" length="3.54" shape="1187.86,563.78 1187.36,563.29 1186.85,563.41 1186.35,564.14 1185.84,565.48"/>
    </edge>
    <edge id=":107816_1" function="internal">
        <lane id=":107816_1_0" index="0" disallow="tram rail_urban rail rail_electric ship" speed="11.11" length="6.50" shape="1187.86,563.78 1186.61,562.55 1185.30,562.31 1183.80,562.25 1182.01,561.57"/>
    </edge>
    <edge id=":107816_2" function="internal">
        <lane id=":107816_2_0" index="0" disallow="tram rail_urban rail rail_electric ship" speed="13.41" length="9.06" shape="1188.60,556.99 1187.18,559.27 1186.29,560.89 1185.61,562.60 1184.79,565.15"/>
    </edge>
    <edge id=":107816_3" function="internal">
        <lane id=":107816_3_0" index="0" disallow="tram rail_urban rail rail_electric ship" speed="6.08" length="7.77" shape="1188.60,556.99 1186.96,559.22 1185.42,560.57 1183.96,561.05 1182.60,560.65"/>
    </edge>
    <edge id=":107816_4" function="internal">
        <lane id=":107816_4_0" index="0" disallow="tram rail_urban rail rail_electric ship" speed="6.69" length="7.66" shape="1184.32,557.95 1185.20,558.94 1185.57,560.47 1185.43,562.54 1184.79,565.15"/>
    </edge>
    <edge id=":107816_5" function="internal">
        <lane id=":107816_5_0" index="0" disallow="tram rail_urban rail rail_electric ship" speed="3.65" length="4.67" shape="1184.32,557.95 1184.90,559.27 1184.81,560.16 1184.04,560.62 1182.60,560.65"/>
    </edge>
    <edge id=":107818_0" function="internal">
        <lane id=":107818_0_0" index="0" disallow="tram rail_urban rail rail_electric ship" speed="9.49" length="20.08" shape="1071.17,767.55 1070.44,763.63 1069.24,759.32 1066.83,754.73 1062.47,749.99"/>
    </edge>
    <edge id=":107818_1" function="internal">
        <lane id=":107818_1_0" index="0" disallow="tram rail_urban rail rail_electric ship" speed="13.41" length="16.76" shape="1078.67,751.46 1075.81,755.52 1073.54,758.08 1071.25,760.63 1068.35,764.66"/>
        <lane id=":107818_1_1" index="1" disallow="tram rail_urban rail rail_electric ship" speed="13.41" length="16.76" shape="1075.97,749.75 1073.11,753.80 1070.84,756.35 1068.56,758.90 1065.67,762.92"/>
    </edge>
    <edge id=":107818_3" function="internal">
        <lane id=":107818_3_0" index="0" disallow="tram rail_urban rail rail_electric ship" speed="6.23" length="9.09" shape="1073.26,748.04 1071.71,749.76 1069.91,750.39 1067.85,749.95 1065.55,748.42"/>
    </edge>
    <edge id=":107820_0" function="internal">
        <lane id=":107820_0_0" index="0" disallow="tram rail_urban rail rail_electric ship" speed="6.66" length="5.55" shape="1011.90,865.73 1012.73,865.09 1013.88,864.72 1015.36,864.63 1017.16,864.82"/>
    </edge>
    <edge id=":108058_0" function="internal">
        <lane id=":108058_0_0" index="0" disallow="tram rail_urban rail rail_electric ship" speed="7.65" length="7.62" shape="828.02,821.07 829.08,820.80 830.34,819.87 831.80,818.28 833.46,816.03"/>
    </edge>
    <edge id=":108058_1" function="internal">
        <lane id=":108058_1_0" index="0" disallow="tram rail_urban rail rail_electric ship" speed="13.41" length="10.15" shape="828.02,821.07 831.00,821.31 833.06,821.59 835.11,822.01 838.03,822.66"/>
    </edge>
    <edge id=":108058_2" function="internal">
        <lane id=":108058_2_0" index="0" disallow="tram rail_urban rail rail_electric ship" speed="13.41" length="10.95" shape="827.58,825.40 833.46,816.03"/>
        <lane id=":108058_2_1" index="1" disallow="tram rail_urban rail rail_electric ship" speed="13.41" length="10.95" shape="830.35,827.00 836.11,817.83"/>
    </edge>
    <edge id=":108058_4" function="internal">
        <lane id=":108058_4_0" index="0" disallow="tram rail_urban rail rail_electric ship" speed="7.53" length="9.49" shape="830.35,827.00 831.99,824.73 833.81,823.25 835.83,822.56 838.03,822.66"/>
    </edge>
    <edge id=":108059_0" function="internal">
        <lane id=":108059_0_0" index="0" disallow="tram rail_urban rail rail_electric ship" speed="13.41" length="12.39" shape="880.89,836.47 883.88,837.97 886.30,839.46 888.55,841.21 891.03,843.46"/>
    </edge>
    <edge id=":108059_1" function="internal">
        <lane id=":108059_1_0" index="0" disallow="tram rail_urban rail rail_electric ship" speed="6.14" length="9.06" shape="880.89,836.47 883.03,837.86 884.06,839.54 884.00,841.52 882.83,843.79"/>
    </edge>
    <edge id=":108060_0" function="internal">
        <lane id=":108060_0_0" index="0" disallow="tram rail_urban rail rail_electric ship" speed="7.46" length="8.46" shape="926.56,870.62 926.00,872.89 926.05,874.95 926.74,876.80 928.04,878.43"/>
    </edge>
    <edge id=":108060_1" function="internal">
        <lane id=":108060_1_0" index="0" disallow="tram rail_urban rail rail_electric ship" speed="13.89" length="9.48" shape="926.56,870.62 925.58,873.26 924.80,875.03 923.80,876.68 922.17,878.96"/>
    </edge>
    <edge id=":108060_2" function="internal">
        <lane id=":108060_2_0" index="0" disallow="tram rail_urban rail rail_electric ship" speed="13.41" length="9.52" shape="921.12,871.89 928.04,878.43"/>
    </edge>
    <edge id=":108060_3" function="internal">
        <lane id=":108060_3_0" index="0" disallow="tram rail_urban rail rail_electric ship" speed="6.42" length="3.58" shape="921.12,871.89 922.57,873.64 923.03,874.87"/>
    </edge>
    <edge id=":108060_4" function="internal">
        <lane id=":108060_4_0" index="0" speed="6.42" length="4.36" shape="923.03,874.87 923.22,875.40 923.09,877.17 922.17,878.96"/>
    </edge>
    <edge id=":108061_0" function="internal">
        <lane id=":108061_0_0" index="0" disallow="tram rail_urban rail rail_electric ship" speed="13.89" length="11.44" shape="942.09,830.64 940.65,833.49 939.58,835.78 938.61,838.11 937.48,841.10"/>
    </edge>
    <edge id=":108061_1" function="internal">
        <lane id=":108061_1_0" index="0" disallow="tram rail_urban rail rail_electric ship" speed="8.68" length="10.37" shape="942.09,830.64 940.33,833.63 938.56,835.79 936.76,837.11 934.95,837.59"/>
    </edge>
    <edge id=":108061_2" function="internal">
        <lane id=":108061_2_0" index="0" disallow="tram rail_urban rail rail_electric ship" speed="5.81" length="9.05" shape="934.84,834.39 936.95,834.75 938.10,835.98 938.27,838.10 937.48,841.10"/>
    </edge>
    <edge id=":108061_3" function="internal">
        <lane id=":108061_3_0" index="0" disallow="tram rail_urban rail rail_electric ship" speed="3.65" length="4.67" shape="934.84,834.39 936.07,835.15 936.49,835.94 936.12,836.75 934.95,837.59"/>
    </edge>
    <edge id=":108078_0" function="internal">
        <lane id=":108078_0_0" index="0" disallow="tram rail_urban rail rail_electric ship" speed="13.41" length="4.88" shape="906.44,271.79 910.31,274.66"/>
        <lane id=":108078_0_1" index="1" disallow="tram rail_urban rail rail_electric ship" speed="13.41" length="4.88" shape="904.48,274.32 908.46,277.26"/>
    </edge>
    <edge id=":108079_0" function="internal">
        <lane id=":108079_0_0" index="0" disallow="tram rail_urban rail rail_electric ship" speed="13.41" length="6.33" shape="866.07,240.48 864.67,241.43 863.73,242.13 862.93,242.97 861.97,244.35"/>
        <lane id=":108079_0_1" index="1" disallow="tram rail_urban rail rail_electric ship" speed="13.41" length="6.33" shape="864.25,237.85 862.55,239.01 861.41,239.87 860.46,240.92 859.29,242.60"/>
    </edge>
    <edge id=":108080_0" function="internal">
        <lane id=":108080_0_0" index="0" disallow="tram rail_urban rail rail_electric ship" speed="6.54" length="8.79" shape="819.68,333.97 817.48,332.98 815.47,332.90 813.65,333.72 812.03,335.45"/>
    </edge>
    <edge id=":108080_1" function="internal">
        <lane id=":108080_1_0" index="0" disallow="tram rail_urban rail rail_electric ship" speed="7.98" length="14.32" shape="819.68,333.97 815.48,330.93 812.92,328.10 811.99,325.47 812.69,323.04"/>
    </edge>
    <edge id=":108080_2" function="internal">
        <lane id=":108080_2_0" index="0" disallow="tram rail_urban rail rail_electric ship" speed="13.41" length="10.70" shape="818.05,326.54 812.03,335.45"/>
        <lane id=":108080_2_1" index="1" disallow="tram rail_urban rail rail_electric ship" speed="13.41" length="10.70" shape="815.37,324.79 809.41,333.62"/>
    </edge>
    <edge id=":108080_4" function="internal">
        <lane id=":108080_4_0" index="0" disallow="tram rail_urban rail rail_electric ship" speed="3.65" length="2.34" shape="815.37,324.79 814.04,325.36 813.15,325.26"/>
    </edge>
    <edge id=":108080_8" function="internal">
        <lane id=":108080_8_0" index="0" speed="3.65" length="2.34" shape="813.15,325.26 812.70,324.48 812.69,323.04"/>
    </edge>
    <edge id=":108080_5" function="internal">
        <lane id=":108080_5_0" index="0" disallow="tram rail_urban rail rail_electric ship" speed="13.41" length="10.50" shape="804.16,329.95 810.01,321.29"/>
        <lane id=":108080_5_1" index="1" disallow="tram rail_urban rail rail_electric ship" speed="13.41" length="10.50" shape="806.79,331.78 812.69,323.04"/>
    </edge>
    <edge id=":108080_7" function="internal">
        <lane id=":108080_7_0" index="0" disallow="tram rail_urban rail rail_electric ship" speed="3.65" length="2.34" shape="806.79,331.78 808.13,331.26 809.01,331.39"/>
    </edge>
    <edge id=":108080_9" function="internal">
        <lane id=":108080_9_0" index="0" speed="3.65" length="2.34" shape="809.01,331.39 809.44,332.18 809.41,333.62"/>
    </edge>
    <edge id=":108081_0" function="internal">
        <lane id=":108081_0_0" index="0" disallow="tram rail_urban rail rail_electric ship" speed="13.41" length="9.45" shape="791.92,366.44 786.77,374.37"/>
        <lane id=":108081_0_1" index="1" disallow="tram rail_urban rail rail_electric ship" speed="13.41" length="9.45" shape="789.23,364.70 784.09,372.62"/>
    </edge>
    <edge id=":108081_2" function="internal">
        <lane id=":108081_2_0" index="0" allow="delivery bicycle pedestrian" speed="7.61" length="4.42" shape="789.23,364.70 787.17,366.78 785.73,367.16"/>
    </edge>
    <edge id=":108081_3" function="internal">
        <lane id=":108081_3_0" index="0" disallow="tram rail_urban rail rail_electric ship" speed="3.65" length="2.34" shape="789.23,364.70 787.91,365.28 787.02,365.18"/>
    </edge>
    <edge id=":108081_11" function="internal">
        <lane id=":108081_11_0" index="0" speed="7.61" length="8.68" shape="785.73,367.16 784.56,367.47 781.41,366.77 777.71,364.68"/>
    </edge>
    <edge id=":108081_12" function="internal">
        <lane id=":108081_12_0" index="0" speed="3.65" length="2.34" shape="787.02,365.18 786.57,364.41 786.55,362.96"/>
    </edge>
    <edge id=":108081_4" function="internal">
        <lane id=":108081_4_0" index="0" disallow="tram rail_urban rail rail_electric ship" speed="5.00" length="5.05" shape="779.56,362.06 780.80,362.69 781.93,362.76 782.95,362.27 783.86,361.23"/>
    </edge>
    <edge id=":108081_5" function="internal">
        <lane id=":108081_5_0" index="0" disallow="tram rail_urban rail rail_electric ship" speed="7.73" length="12.82" shape="779.56,362.06 782.78,364.79 784.60,367.45 785.04,370.07 784.09,372.62"/>
    </edge>
    <edge id=":108081_6" function="internal">
        <lane id=":108081_6_0" index="0" allow="delivery bicycle pedestrian" speed="3.65" length="4.67" shape="779.56,362.06 780.08,363.41 779.94,364.29 779.16,364.71 777.71,364.68"/>
    </edge>
    <edge id=":108081_7" function="internal">
        <lane id=":108081_7_0" index="0" allow="delivery bicycle pedestrian" speed="5.16" length="5.15" shape="778.73,369.11 779.29,367.88 779.31,366.73 778.78,365.66 777.71,364.68"/>
    </edge>
    <edge id=":108081_8" function="internal">
        <lane id=":108081_8_0" index="0" disallow="tram rail_urban rail rail_electric ship" speed="13.41" length="9.42" shape="778.73,369.11 783.86,361.23"/>
        <lane id=":108081_8_1" index="1" disallow="tram rail_urban rail rail_electric ship" speed="13.41" length="9.42" shape="781.41,370.87 786.55,362.96"/>
    </edge>
    <edge id=":108081_10" function="internal">
        <lane id=":108081_10_0" index="0" disallow="tram rail_urban rail rail_electric ship" speed="3.65" length="2.34" shape="781.41,370.87 782.74,370.30 783.62,370.40"/>
    </edge>
    <edge id=":108081_13" function="internal">
        <lane id=":108081_13_0" index="0" speed="3.65" length="2.34" shape="783.62,370.40 784.07,371.18 784.09,372.62"/>
    </edge>
    <edge id=":108084_0" function="internal">
        <lane id=":108084_0_0" index="0" disallow="tram rail_urban rail rail_electric ship" speed="5.70" length="6.49" shape="1155.06,425.14 1152.90,424.02 1151.19,423.47 1149.94,423.50 1149.13,424.11"/>
    </edge>
    <edge id=":108084_1" function="internal">
        <lane id=":108084_1_0" index="0" disallow="tram rail_urban rail rail_electric ship" speed="13.41" length="12.44" shape="1155.06,425.14 1144.40,418.65"/>
        <lane id=":108084_1_1" index="1" disallow="tram rail_urban rail rail_electric ship" speed="13.41" length="12.44" shape="1156.69,422.39 1146.11,415.94"/>
    </edge>
    <edge id=":108084_3" function="internal">
        <lane id=":108084_3_0" index="0" disallow="tram rail_urban rail rail_electric ship" speed="4.91" length="4.73" shape="1146.45,422.37 1146.74,421.49 1146.49,420.58 1145.71,419.63 1144.40,418.65"/>
    </edge>
    <edge id=":108084_4" function="internal">
        <lane id=":108084_4_0" index="0" disallow="tram rail_urban rail rail_electric ship" speed="3.65" length="4.67" shape="1146.45,422.37 1147.77,421.80 1148.66,421.90 1149.11,422.67 1149.13,424.11"/>
    </edge>
    <edge id=":108263_0" function="internal">