<?xml version="1.0" encoding="UTF-8"?>

<!-- generated on Wed May 15 15:25:17 2019 by Eclipse SUMO polyconvert Version 1.0.1
<configuration xmlns:xsi="http://www.w3.org/2001/XMLSchema-instance" xsi:noNamespaceSchemaLocation="http://sumo.dlr.de/xsd/polyconvertConfiguration.xsd">

    <input>
        <net-file value="p.net.xml"/>
        <osm-files value="p.osm.xml"/>
    </input>

    <output>
        <output-file value="p.poly.xml"/>
    </output>

    <processing>
        <poi-layer-offset value="5"/>
    </processing>

</configuration>
-->

<additional xmlns:xsi="http://www.w3.org/2001/XMLSchema-instance" xsi:noNamespaceSchemaLocation="http://sumo.dlr.de/xsd/additional_file.xsd">
    <location netOffset="-697751.77,-5709645.51" convBoundary="-90.91,-282.81,2082.07,2198.04" origBoundary="-0.151299,51.500466,-0.120115,51.522959" projParameter="+proj=utm +zone=30 +ellps=WGS84 +datum=WGS84 +units=m +no_defs"/>

    <poly id="106771450" type="tourism" color="207,245,201" fill="1" layer="-2.00" shape="1081.960643,754.410886 1078.346299,760.115315 1073.704604,768.986462 1073.475469,772.529642 1073.704635,776.257806 1074.893458,779.611559 1076.592660,782.885089 1079.361993,786.334167 1082.782667,789.474707 1087.567319,791.143152 1092.590286,791.339945 1095.663296,791.471480 1102.070095,790.753730 1104.997073,790.356190 1109.733139,789.717747 1120.761795,789.325878 1130.410035,790.115957 1137.880574,791.332937 1149.104659,793.933048 1150.957820,794.517899 1155.795671,796.778665 1161.118422,791.631197 1160.062270,790.921686 1123.556901,772.788140 1105.505449,763.016698 1095.933462,757.441483 1099.855431,750.802618 1093.054013,746.516303 1088.158502,743.774524 1081.960643,754.410886"/>
    <poly id="107803104" type="amenity" color="237,199,199" fill="1" layer="-1.00" shape="911.046094,857.611841 914.061413,854.600864 917.933775,844.073728 902.220042,845.050973 902.025663,848.951843 911.046094,857.611841"/>
    <poly id="107803104#1" type="building" color="255,230,230" fill="1" layer="-1.00" shape="911.046094,857.611841 914.061413,854.600864 917.933775,844.073728 902.220042,845.050973 902.025663,848.951843 911.046094,857.611841"/>
    <poly id="107803105" type="building" color="255,230,230" fill="1" layer="-1.00" shape="931.562149,876.131182 970.342376,911.400540 977.866906,902.007490 978.976805,900.102278 980.548536,897.936769 1008.227795,863.410096 1026.873122,839.208450 1023.686108,833.827773 995.071835,838.107752 949.752339,842.424210 941.426909,843.167248 938.680245,850.141748 930.201008,870.610478 931.562149,876.131182"/>
    <poly id="117622792" type="building" color="255,230,230" fill="1" layer="-1.00" shape="775.165978,815.125279 767.386369,812.927979 760.267302,824.575365 767.130451,828.707746 768.542953,826.702977 775.165978,815.125279"/>
    <poly id="117622796" type="building" color="255,230,230" fill="1" layer="-1.00" shape="753.380659,821.043378 744.014422,815.354401 752.666455,802.174612 760.996677,805.217434 758.461448,811.944175 753.380659,821.043378"/>
    <poly id="117622798" type="building" color="255,230,230" fill="1" layer="-1.00" shape="744.014422,815.354401 729.772569,806.234411 736.075362,796.091724 752.666455,802.174612 744.014422,815.354401"/>
    <poly id="117622803" type="building" color="255,230,230" fill="1" layer="-1.00" shape="732.580124,862.721933 740.879615,868.324631 735.450321,877.098430 726.104554,871.421416 732.580124,862.721933"/>
    <poly id="117622805" type="building" color="255,230,230" fill="1" layer="-1.00" shape="674.868835,808.307789 692.760058,782.739299 716.405868,799.609574 695.809995,830.907092 688.527996,826.112590 692.690452,819.527392 674.868835,808.307789"/>
    <poly id="117622808" type="building" color="255,230,230" fill="1" layer="-1.00" shape="698.217172,854.284996 690.042394,866.815412 695.594367,870.361937 696.882386,868.341148 705.141184,873.563597 703.844921,875.617468 711.637175,880.509898 717.079467,871.402528 709.871670,866.844732 712.401749,862.912714 698.217172,854.284996"/>
    <poly id="117622810" type="building" color="255,230,230" fill="1" layer="-1.00" shape="729.772569,806.234411 724.253503,814.815413 751.029260,831.953029 756.132761,825.115168 757.569966,823.189308 744.014422,815.354401 729.772569,806.234411"/>
    <poly id="117622816" type="building" color="255,230,230" fill="1" layer="-1.00" shape="690.042394,866.815412 688.355397,869.444176 685.932902,873.113165 699.245905,881.639958 705.314248,885.485069 707.586190,886.910140 711.637175,880.509898 703.844921,875.617468 695.594367,870.361937 690.042394,866.815412"/>
    <poly id="117622817" type="building" color="255,230,230" fill="1" layer="-1.00" shape="692.690452,819.527392 688.527996,826.112590 683.767251,823.120368 686.240955,819.208404 681.093880,815.967240 678.916380,819.411972 671.002596,814.425767 674.868835,808.307789 692.690452,819.527392"/>
    <poly id="117622819" type="building" color="255,230,230" fill="1" layer="-1.00" shape="722.157590,898.080719 735.450321,877.098430 728.595460,872.933007 726.104554,871.421416 710.646378,888.789176 709.692725,890.255141 722.157590,898.080719"/>
    <poly id="117622821" type="building" color="255,230,230" fill="1" layer="-1.00" shape="718.017598,824.314883 707.223302,840.929687 719.983066,849.568521 722.978933,844.919797 731.412475,850.293879 728.179851,854.955610 734.711671,859.386778 736.058630,857.813711 740.107101,851.123874 739.001911,850.423670 744.788992,841.385486 718.017598,824.314883"/>
    <poly id="117622823" type="building" color="255,230,230" fill="1" layer="-1.00" shape="767.386369,812.927979 770.234887,808.139892 760.996677,805.217434 758.461448,811.944175 753.380659,821.043378 757.569966,823.189308 760.267302,824.575365 767.386369,812.927979"/>
    <poly id="117622824" type="building" color="255,230,230" fill="1" layer="-1.00" shape="680.737976,880.693574 685.932902,873.113165 699.245905,881.639958 705.314248,885.485069 700.256733,893.282402 691.142115,887.202488 680.737976,880.693574"/>
    <poly id="117622827" type="building" color="255,230,230" fill="1" layer="-1.00" shape="707.223302,840.929687 698.217172,854.284996 712.401749,862.912714 726.104554,871.421416 732.580124,862.721933 734.711671,859.386778 728.179851,854.955610 726.300296,857.710455 718.431778,852.102366 719.983066,849.568521 707.223302,840.929687"/>
    <poly id="117622829" type="building" color="255,230,230" fill="1" layer="-1.00" shape="724.253503,814.815413 718.017598,824.314883 744.788992,841.385486 751.029260,831.953029 724.253503,814.815413"/>
    <poly id="117814245" type="building" color="255,230,230" fill="1" layer="-1.00" shape="744.479149,882.351062 749.133468,874.738432 750.292555,874.238140 761.353450,881.541222 756.492231,889.646835 752.237538,887.219963 744.479149,882.351062"/>
    <poly id="117814251" type="building" color="255,230,230" fill="1" layer="-1.00" shape="669.719230,790.557332 680.396328,774.806417 647.305259,753.190946 637.012851,768.879017 651.537644,778.410659 653.298862,779.748926 669.719230,790.557332"/>
    <poly id="117814254" type="amenity" color="237,199,199" fill="1" layer="-1.00" shape="753.166289,895.095502 756.492231,889.646835 761.353450,881.541222 771.898444,887.821977 772.645530,891.637185 765.697870,902.812449 756.791388,897.453208 753.166289,895.095502"/>
    <poly id="117814254#1" type="building" color="255,230,230" fill="1" layer="-1.00" shape="753.166289,895.095502 756.492231,889.646835 761.353450,881.541222 771.898444,887.821977 772.645530,891.637185 765.697870,902.812449 756.791388,897.453208 753.166289,895.095502"/>
    <poly id="117814262" type="building" color="255,230,230" fill="1" layer="-1.00" shape="736.578713,895.326413 744.479149,882.351062 752.237538,887.219963 744.399547,900.019581 736.578713,895.326413"/>
    <poly id="117814264" type="building" color="255,230,230" fill="1" layer="-1.00" shape="782.698388,817.602439 805.455951,825.552481 808.491461,827.174499 809.199694,829.496069 808.888426,832.479274 805.669049,838.043434 791.454286,860.915890 787.732756,867.061718 780.334828,879.266064 778.456205,881.286002 773.817390,882.106713 770.699999,880.091777 755.059640,870.315692 765.607086,855.751347 766.940677,853.632138 744.788992,841.385486 756.132761,825.115168 766.750036,829.906608 767.130451,828.707746 775.165978,815.125279 782.698388,817.602439"/>
    <poly id="143641503" type="amenity" color="237,199,199" fill="1" layer="-1.00" shape="1243.199463,587.141926 1259.191871,559.941819 1268.609274,565.566941 1288.625525,577.520556 1287.502444,579.402924 1298.970907,588.894547 1286.516778,610.030922 1243.199463,587.141926"/>
    <poly id="143641503#1" type="building" color="255,230,230" fill="1" layer="-1.00" shape="1243.199463,587.141926 1259.191871,559.941819 1268.609274,565.566941 1288.625525,577.520556 1287.502444,579.402924 1298.970907,588.894547 1286.516778,610.030922 1243.199463,587.141926"/>
    <poly id="149173459" type="amenity" color="237,199,199" fill="1" layer="-1.00" shape="1123.870071,722.769539 1145.291208,735.390103 1144.002071,737.611184 1123.556901,772.788140 1105.505449,763.016698 1112.230822,751.332044 1108.352512,749.053242 1123.870071,722.769539"/>
    <poly id="149173459#1" type="building" color="255,230,230" fill="1" layer="-1.00" shape="1123.870071,722.769539 1145.291208,735.390103 1144.002071,737.611184 1123.556901,772.788140 1105.505449,763.016698 1112.230822,751.332044 1108.352512,749.053242 1123.870071,722.769539"/>
    <poly id="149173468" type="amenity" color="237,199,199" fill="1" layer="-1.00" shape="1065.257506,684.673236 1077.744381,693.357963 1066.385138,711.230519 1052.901198,703.698238 1065.257506,684.673236"/>
    <poly id="149173468#1" type="building" color="255,230,230" fill="1" layer="-1.00" shape="1065.257506,684.673236 1077.744381,693.357963 1066.385138,711.230519 1052.901198,703.698238 1065.257506,684.673236"/>
    <poly id="149173473" type="amenity" color="237,199,199" fill="1" layer="-1.00" shape="1021.206966,884.529829 1021.556354,882.528027 1022.980825,871.704648 1019.997243,871.242599 1018.090191,871.501966 1015.990566,872.065580 1014.113296,873.161261 1012.977922,874.297135 997.595412,892.012242 1027.703503,916.642325 1039.695897,902.814351 1041.063903,890.240523 1035.146573,889.641278 1031.995131,889.562381 1029.602524,891.929564 1021.206966,884.529829"/>
    <poly id="149173473#1" type="building" color="255,230,230" fill="1" layer="-1.00" shape="1021.206966,884.529829 1021.556354,882.528027 1022.980825,871.704648 1019.997243,871.242599 1018.090191,871.501966 1015.990566,872.065580 1014.113296,873.161261 1012.977922,874.297135 997.595412,892.012242 1027.703503,916.642325 1039.695897,902.814351 1041.063903,890.240523 1035.146573,889.641278 1031.995131,889.562381 1029.602524,891.929564 1021.206966,884.529829"/>
    <poly id="149173476" type="amenity" color="237,199,199" fill="1" layer="-1.00" shape="1277.979710,783.607476 1300.255133,797.108521 1292.513737,815.200454 1283.516825,820.482084 1268.010125,815.464394 1260.498000,824.523482 1255.605625,822.060038 1254.532241,820.904417 1254.075995,819.249636 1254.746358,817.215889 1277.979710,783.607476"/>
    <poly id="149173476#1" type="building" color="255,230,230" fill="1" layer="-1.00" shape="1277.979710,783.607476 1300.255133,797.108521 1292.513737,815.200454 1283.516825,820.482084 1268.010125,815.464394 1260.498000,824.523482 1255.605625,822.060038 1254.532241,820.904417 1254.075995,819.249636 1254.746358,817.215889 1277.979710,783.607476"/>
    <poly id="149173484" type="building" color="255,230,230" fill="1" layer="-1.00" shape="1297.124729,642.171437 1287.157953,657.470231 1293.329969,660.618592 1291.833007,662.998520 1295.301036,667.588653 1306.516162,674.498114 1311.129845,667.062507 1315.435932,660.383175 1318.791764,654.546266 1297.124729,642.171437"/>
    <poly id="150915470" type="building" color="255,230,230" fill="1" layer="-1.00" shape="1344.635905,558.482263 1329.005345,584.593928 1364.144046,605.525928 1379.774739,579.414368 1344.635905,558.482263"/>
    <poly id="150920323" type="building" color="255,230,230" fill="1" layer="-1.00" shape="1284.602590,832.483995 1289.134723,832.439030 1293.129474,831.036755 1295.727201,829.290173 1297.470948,826.463380 1310.171076,802.942608 1300.255133,797.108521 1298.718130,802.281840 1292.513737,815.200454 1291.824842,816.643298 1283.516825,820.482084 1268.010125,815.464394 1260.498000,824.523482 1284.602590,832.483995"/>
    <poly id="150920323#1" type="tourism" color="207,245,201" fill="1" layer="-2.00" shape="1284.602590,832.483995 1289.134723,832.439030 1293.129474,831.036755 1295.727201,829.290173 1297.470948,826.463380 1310.171076,802.942608 1300.255133,797.108521 1298.718130,802.281840 1292.513737,815.200454 1291.824842,816.643298 1283.516825,820.482084 1268.010125,815.464394 1260.498000,824.523482 1284.602590,832.483995"/>
    <poly id="150920326" type="building" color="255,230,230" fill="1" layer="-1.00" shape="1308.802821,799.915811 1300.775580,794.645757 1306.021059,786.689299 1309.352788,781.642051 1298.744560,774.678421 1295.362490,779.946408 1290.447577,787.269992 1281.336407,781.289343 1294.767814,760.915098 1297.830177,760.255729 1322.969080,776.575057 1323.665633,779.720269 1310.935063,799.231105 1308.802821,799.915811"/>
    <poly id="150920329" type="building" color="255,230,230" fill="1" layer="-1.00" shape="1281.346650,911.962696 1282.505290,915.727332 1296.554605,923.349269 1301.497644,925.580906 1305.346996,922.569456 1329.664760,877.434211 1331.727697,872.493103 1330.720198,869.658615 1327.478320,866.747615 1306.351976,858.859155 1302.322635,861.852413 1300.758203,863.650653 1299.675491,867.516685 1281.815902,909.564735 1281.346650,911.962696"/>
    <poly id="150920330" type="landuse" color="194,194,130" fill="1" layer="-3.00" shape="1404.065267,736.551563 1396.473423,771.185201 1391.700353,792.244126 1374.256835,788.419543 1334.827524,779.122517 1338.776488,771.449290 1332.125175,767.769837 1347.186848,743.395271 1351.570863,744.825544 1362.125169,728.013247 1404.065267,736.551563"/>
    <poly id="150920333" type="building" color="255,230,230" fill="1" layer="-1.00" shape="1295.362490,779.946408 1306.021059,786.689299 1300.775580,794.645757 1290.447577,787.269992 1295.362490,779.946408"/>
    <poly id="150920340" type="building" color="255,230,230" fill="1" layer="-1.00" shape="1309.718150,735.300046 1335.730247,752.566776 1343.061357,741.574272 1317.049222,724.307506 1309.718150,735.300046"/>
    <poly id="150920352" type="building" color="255,230,230" fill="1" layer="-1.00" shape="1204.880926,565.418037 1208.221059,559.624987 1207.204712,559.139735 1207.896590,557.975378 1209.109875,555.918366 1213.285019,548.855220 1214.274910,547.179187 1215.331567,545.572583 1215.940310,545.997317 1220.530158,538.282314 1223.525811,540.036637 1226.276484,541.658871 1228.932200,543.221707 1229.362072,542.537035 1240.312251,549.124150 1238.587529,551.996253 1223.648125,576.799067 1213.331031,570.548591 1204.880926,565.418037"/>
    <poly id="150920354" type="building" color="255,230,230" fill="1" layer="-1.00" shape="1223.648125,576.799067 1235.132029,583.418235 1239.871720,574.539916 1242.152538,570.776521 1244.329687,567.176093 1246.766674,563.151575 1249.218412,559.105366 1249.537675,558.583389 1251.276278,555.711834 1253.675969,551.752668 1256.150275,547.662806 1257.219988,545.900828 1258.186028,544.301815 1260.199225,540.984481 1262.220234,537.645184 1264.315423,534.186307 1266.299567,530.901242 1267.049583,529.672361 1268.298025,527.605604 1270.333793,524.244617 1272.451114,520.753206 1275.068211,516.212402 1253.578707,503.722278 1245.643962,516.461762 1245.095046,516.106182 1241.650374,521.728085 1239.764722,524.805449 1235.339714,532.036946 1235.817939,532.423160 1229.362072,542.537035 1240.312251,549.124150 1238.587529,551.996253 1223.648125,576.799067"/>
    <poly id="150920354#1" type="tourism" color="207,245,201" fill="1" layer="-2.00" shape="1223.648125,576.799067 1235.132029,583.418235 1239.871720,574.539916 1242.152538,570.776521 1244.329687,567.176093 1246.766674,563.151575 1249.218412,559.105366 1249.537675,558.583389 1251.276278,555.711834 1253.675969,551.752668 1256.150275,547.662806 1257.219988,545.900828 1258.186028,544.301815 1260.199225,540.984481 1262.220234,537.645184 1264.315423,534.186307 1266.299567,530.901242 1267.049583,529.672361 1268.298025,527.605604 1270.333793,524.244617 1272.451114,520.753206 1275.068211,516.212402 1253.578707,503.722278 1245.643962,516.461762 1245.095046,516.106182 1241.650374,521.728085 1239.764722,524.805449 1235.339714,532.036946 1235.817939,532.423160 1229.362072,542.537035 1240.312251,549.124150 1238.587529,551.996253 1223.648125,576.799067"/>
    <poly id="150920359" type="parking" color="184,184,179" fill="1" layer="-1.00" shape="1288.071653,422.061035 1257.094661,474.128863 1259.243145,481.540132 1290.690844,428.455192 1288.071653,422.061035"/>
    <poly id="150920360" type="parking" color="184,184,179" fill="1" layer="-1.00" shape="1245.627629,447.221800 1244.369535,441.203954 1268.745151,399.411210 1271.300595,403.887582 1245.627629,447.221800"/>
    <poly id="153661783" type="building" color="255,230,230" fill="1" layer="-1.00" shape="1105.505449,763.016698 1095.933462,757.441483 1099.855431,750.802618 1093.054013,746.516303 1111.399576,715.443835 1123.870071,722.769539 1108.352512,749.053242 1112.230822,751.332044 1105.505449,763.016698"/>
    <poly id="153661783#1" type="shop" color="237,199,255" fill="1" layer="-1.00" shape="1105.505449,763.016698 1095.933462,757.441483 1099.855431,750.802618 1093.054013,746.516303 1111.399576,715.443835 1123.870071,722.769539 1108.352512,749.053242 1112.230822,751.332044 1105.505449,763.016698"/>
    <poly id="153661791" type="building" color="255,230,230" fill="1" layer="-1.00" shape="1123.556901,772.788140 1160.062270,790.921686 1161.118422,791.631197 1162.524147,791.931268 1163.859255,791.905648 1165.383565,791.130243 1166.441001,789.679558 1183.405900,767.071722 1179.920944,764.685793 1181.978728,761.114071 1144.002071,737.611184 1123.556901,772.788140"/>
    <poly id="153661797" type="building" color="255,230,230" fill="1" layer="-1.00" shape="1193.851973,653.734072 1166.595487,637.521758 1164.399630,632.736604 1174.998439,614.422426 1183.182483,600.278439 1185.179590,596.837961 1197.636859,604.152177 1199.539421,605.251201 1197.544050,608.647201 1193.843509,614.949489 1197.464349,617.062364 1195.640325,620.164427 1199.750238,622.563722 1208.972476,628.025194 1208.601722,630.215450 1193.851973,653.734072"/>
    <poly id="153661799" type="building" color="255,230,230" fill="1" layer="-1.00" shape="1196.880968,668.640482 1203.073679,670.375360 1198.983806,676.506486 1234.236405,697.185953 1239.201217,689.652701 1249.604594,673.669420 1235.656888,665.739860 1231.191013,671.889628 1204.685382,655.494962 1196.880968,668.640482"/>
    <poly id="153661800" type="building" color="255,230,230" fill="1" layer="-1.00" shape="1261.978841,653.676776 1269.971173,640.705741 1257.252117,633.692859 1256.038827,635.749860 1253.247896,634.092622 1254.624284,631.774768 1247.540933,627.588548 1240.281604,639.942505 1247.273875,644.147415 1248.828976,641.524778 1251.627278,643.171168 1250.064802,645.804650 1261.978841,653.676776"/>
    <poly id="153661802" type="building" color="255,230,230" fill="1" layer="-1.00" shape="1269.971173,640.705741 1275.026034,632.296360 1274.205160,628.244323 1249.438320,611.628097 1241.790327,624.501309 1244.744146,626.966669 1246.745610,623.593195 1249.088665,624.976757 1247.540933,627.588548 1254.624284,631.774768 1256.306057,628.934393 1259.103928,630.591905 1257.252117,633.692859 1269.971173,640.705741"/>
    <poly id="153661804" type="building" color="255,230,230" fill="1" layer="-1.00" shape="1086.004865,872.169119 1112.940836,875.785631 1114.908254,875.049847 1116.191620,873.329623 1116.512892,871.159694 1115.643092,868.709252 1102.212239,839.086466 1093.626199,842.046104 1093.361580,857.135191 1094.805027,857.358776 1094.580199,860.968937 1088.234005,860.319423 1087.603247,864.359092 1086.004865,872.169119"/>
    <poly id="153661805" type="building" color="255,230,230" fill="1" layer="-1.00" shape="1325.881609,666.182375 1324.044038,669.450895 1334.402902,675.513957 1337.726872,670.666853 1347.686054,676.112958 1347.230127,676.930222 1343.966648,682.715060 1345.122153,683.194665 1344.671857,684.045556 1345.157433,684.420935 1343.010975,688.300910 1342.033872,688.941835 1340.998810,688.934639 1338.918498,687.939939 1337.546800,690.491798 1328.600975,685.252490 1330.749523,681.673245 1320.453032,675.968967 1317.955679,674.445694 1319.389733,672.252606 1311.129845,667.062507 1315.435932,660.383175 1325.881609,666.182375"/>
    <poly id="153661807" type="amenity" color="237,199,199" fill="1" layer="-1.00" shape="1249.604594,673.669420 1261.978841,653.676776 1250.064802,645.804650 1247.273875,644.147415 1240.281604,639.942505 1236.222321,646.709518 1231.955381,653.279092 1227.553871,660.622864 1235.656888,665.739860 1249.604594,673.669420"/>
    <poly id="153661807#1" type="building" color="255,230,230" fill="1" layer="-1.00" shape="1249.604594,673.669420 1261.978841,653.676776 1250.064802,645.804650 1247.273875,644.147415 1240.281604,639.942505 1236.222321,646.709518 1231.955381,653.279092 1227.553871,660.622864 1235.656888,665.739860 1249.604594,673.669420"/>
    <poly id="153661808" type="building" color="255,230,230" fill="1" layer="-1.00" shape="1337.726872,670.666853 1344.670195,658.757174 1354.283369,664.167447 1351.907944,668.038437 1353.492217,668.924600 1356.121935,664.239573 1362.846203,668.010994 1363.295932,669.654395 1361.555946,672.737431 1360.173463,673.084067 1358.657264,672.233978 1357.556621,672.658483 1355.102172,671.281634 1353.812055,673.524900 1359.067807,676.470372 1357.917361,678.518680 1356.185191,681.579754 1354.230635,680.567710 1348.456281,677.557359 1351.152357,672.774715 1349.948761,672.103921 1347.686054,676.112958 1337.726872,670.666853"/>
    <poly id="153661809" type="building" color="255,230,230" fill="1" layer="-1.00" shape="1102.212239,839.086466 1097.042195,822.782266 1095.424225,818.854928 1093.659868,816.358307 1090.651778,814.570158 1087.593624,813.882444 1084.002878,813.841982 1080.701617,814.748229 1069.252590,819.132417 1056.216021,824.133693 1055.075494,824.868486 1058.255932,838.043627 1053.725874,838.745860 1054.144743,848.806296 1088.654807,854.367394 1088.234005,860.319423 1094.580199,860.968937 1094.805027,857.358776 1093.361580,857.135191 1093.626199,842.046104 1102.212239,839.086466"/>
    <poly id="153661812" type="amenity" color="237,199,199" fill="1" layer="-1.00" shape="1043.955408,840.723820 1036.195677,837.134967 1036.926122,835.693720 1043.652163,839.063920 1043.955408,840.723820"/>
    <poly id="153661812#1" type="building" color="255,230,230" fill="1" layer="-1.00" shape="1043.955408,840.723820 1036.195677,837.134967 1036.926122,835.693720 1043.652163,839.063920 1043.955408,840.723820"/>
    <poly id="153661813" type="building" color="255,230,230" fill="1" layer="-1.00" shape="1287.157953,657.470231 1278.288494,671.898976 1288.776093,678.401267 1295.301036,667.588653 1291.833007,662.998520 1293.329969,660.618592 1287.157953,657.470231"/>
    <poly id="153661816" type="building" color="255,230,230" fill="1" layer="-1.00" shape="1208.601722,630.215450 1220.604794,609.762749 1210.666239,603.961389 1199.750238,622.563722 1208.972476,628.025194 1208.601722,630.215450"/>
    <poly id="153661819" type="building" color="255,230,230" fill="1" layer="-1.00" shape="1244.744146,626.966669 1238.138412,638.778354 1222.651363,630.053556 1232.050806,614.687863 1238.068018,618.242089 1236.282145,621.256553 1244.744146,626.966669"/>
    <poly id="153661823" type="building" color="255,230,230" fill="1" layer="-1.00" shape="1241.790327,624.501309 1244.744146,626.966669 1236.282145,621.256553 1238.068018,618.242089 1232.050806,614.687863 1237.913343,604.817981 1249.438320,611.628097 1241.790327,624.501309"/>
    <poly id="153661824" type="amenity" color="237,199,199" fill="1" layer="-1.00" shape="1306.379908,625.174453 1297.124729,642.171437 1318.791764,654.546266 1315.435932,660.383175 1329.347545,668.344951 1342.048260,646.238440 1331.724864,640.332652 1306.379908,625.174453"/>
    <poly id="153661824#1" type="building" color="255,230,230" fill="1" layer="-1.00" shape="1306.379908,625.174453 1297.124729,642.171437 1318.791764,654.546266 1315.435932,660.383175 1329.347545,668.344951 1342.048260,646.238440 1331.724864,640.332652 1306.379908,625.174453"/>
    <poly id="153661825" type="building" color="255,230,230" fill="1" layer="-1.00" shape="1050.215835,866.268415 1086.004865,872.169119 1087.603247,864.359092 1055.296424,858.784086 1055.890040,853.740784 1052.472857,853.172648 1052.145110,855.331191 1050.215835,866.268415"/>
    <poly id="153661826" type="building" color="255,230,230" fill="1" layer="-1.00" shape="1163.517499,731.305090 1197.913416,752.028694 1199.387257,752.186686 1208.030505,737.492844 1207.897699,735.917560 1174.229414,714.710189 1172.744231,714.841279 1163.377271,729.918817 1163.517499,731.305090"/>
    <poly id="153661827" type="amenity" color="237,199,199" fill="1" layer="-1.00" shape="1033.348479,863.525420 1021.000918,861.583079 1020.617839,860.187300 1024.403698,854.890425 1034.680879,856.295133 1033.348479,863.525420"/>
    <poly id="153661827#1" type="building" color="255,230,230" fill="1" layer="-1.00" shape="1033.348479,863.525420 1021.000918,861.583079 1020.617839,860.187300 1024.403698,854.890425 1034.680879,856.295133 1033.348479,863.525420"/>
    <poly id="153661828" type="building" color="255,230,230" fill="1" layer="-1.00" shape="1227.553871,660.622864 1210.365714,649.916138 1222.651363,630.053556 1238.138412,638.778354 1240.281604,639.942505 1236.222321,646.709518 1231.639424,643.968724 1227.609652,650.692358 1231.955381,653.279092 1227.553871,660.622864"/>
    <poly id="153661831" type="building" color="255,230,230" fill="1" layer="-1.00" shape="1220.604794,609.762749 1223.050189,611.194851 1229.937761,599.461008 1207.950839,586.372523 1195.803136,579.137229 1190.733185,587.579497 1185.179590,596.837961 1197.636859,604.152177 1201.687470,597.251172 1211.306496,602.872957 1210.666239,603.961389 1220.604794,609.762749"/>
    <poly id="153661839" type="building" color="255,230,230" fill="1" layer="-1.00" shape="1178.635397,627.470782 1184.109249,617.763776 1190.391439,621.294924 1184.917577,631.001923 1178.635397,627.470782"/>
    <poly id="153661840" type="amenity" color="237,199,199" fill="1" layer="-1.00" shape="1279.630734,556.511831 1296.494067,566.292943 1310.917389,541.548025 1294.053994,531.766866 1279.630734,556.511831"/>
    <poly id="153661840#1" type="building" color="255,230,230" fill="1" layer="-1.00" shape="1279.630734,556.511831 1296.494067,566.292943 1310.917389,541.548025 1294.053994,531.766866 1279.630734,556.511831"/>
    <poly id="157534202" type="building" color="255,230,230" fill="1" layer="-1.00" shape="1103.873630,377.939094 1139.183642,399.700105 1155.358743,373.687179 1144.341763,366.841551 1141.518252,371.686118 1130.077265,364.133520 1132.764084,359.762409 1119.770441,352.995283 1103.873630,377.939094"/>
    <poly id="157534204" type="building" color="255,230,230" fill="1" layer="-1.00" shape="1152.738327,410.943391 1184.878187,429.184258 1201.831265,399.460500 1169.691260,381.219530 1152.738327,410.943391"/>
    <poly id="157534206" type="building" color="255,230,230" fill="1" layer="-1.00" shape="1046.911905,342.825406 1103.873630,377.939094 1119.770441,352.995283 1108.692668,346.102815 1111.354304,341.842060 1081.662085,323.363531 1079.386088,327.004696 1063.234086,316.951593 1046.911905,342.825406"/>
    <poly id="160537346" type="amenity" color="237,199,199" fill="1" layer="-1.00" shape="937.272132,274.772116 955.058325,286.224997 969.096758,261.697954 966.456459,259.913167 966.970959,258.663889 965.930819,257.186721 964.347631,256.445493 962.909615,256.433740 962.086466,256.869197 961.306816,256.370995 962.658852,254.141195 953.558503,247.849860 945.656697,260.824912 944.836809,262.774895 945.623398,263.273366 944.068314,266.252419 943.116507,265.714076 941.965822,267.060942 937.272132,274.772116"/>
    <poly id="160537346#1" type="building" color="255,230,230" fill="1" layer="-1.00" shape="937.272132,274.772116 955.058325,286.224997 969.096758,261.697954 966.456459,259.913167 966.970959,258.663889 965.930819,257.186721 964.347631,256.445493 962.909615,256.433740 962.086466,256.869197 961.306816,256.370995 962.658852,254.141195 953.558503,247.849860 945.656697,260.824912 944.836809,262.774895 945.623398,263.273366 944.068314,266.252419 943.116507,265.714076 941.965822,267.060942 937.272132,274.772116"/>
    <poly id="160537347" type="building" color="255,230,230" fill="1" layer="-1.00" shape="925.718681,267.772373 937.272132,274.772116 941.965822,267.060942 941.332701,266.902537 944.051065,262.432351 943.548930,262.123179 944.692752,260.241553 945.656697,260.824912 953.558503,247.849860 948.141668,244.564490 943.395900,252.362704 937.326891,248.695489 925.718681,267.772373"/>
    <poly id="160537348" type="building" color="255,230,230" fill="1" layer="-1.00" shape="955.058325,286.224997 978.622487,300.610021 984.982339,289.924188 981.522883,288.118456 984.625252,282.360499 988.268105,284.451795 995.349349,272.558202 994.058893,271.795020 998.008352,265.168279 988.475012,257.690722 982.926368,266.292613 980.276064,264.763538 979.918640,265.373119 978.057377,265.344791 971.447278,261.121857 971.193754,259.965000 971.899845,259.324527 970.863061,258.649228 969.096758,261.697954 955.058325,286.224997"/>
    <poly id="160537349" type="building" color="255,230,230" fill="1" layer="-1.00" shape="978.622487,300.610021 993.530286,309.433788 1014.172426,274.742812 998.008352,265.168279 994.058893,271.795020 995.349349,272.558202 988.268105,284.451795 984.982339,289.924188 978.622487,300.610021"/>