<?xml version="1.0" encoding="UTF-8"?>

<!-- generated on Sat Jun 15 14:55:52 2019 by Eclipse SUMO duarouter Version 1.0.1
<configuration xmlns:xsi="http://www.w3.org/2001/XMLSchema-instance" xsi:noNamespaceSchemaLocation="http://sumo.dlr.de/xsd/duarouterConfiguration.xsd">

    <input>
        <net-file value="piccadilly.net.xml"/>
        <route-files value="trips.trips.xml"/>
    </input>

    <output>
        <output-file value="piccadilly.rou.xml"/>
        <alternatives-output value="piccadilly.rou.alt.xml"/>
    </output>

    <time>
        <begin value="0"/>
        <end value="100.0"/>
    </time>

    <report>
        <no-warnings value="true"/>
        <ignore-errors value="true"/>
        <no-step-log value="true"/>
    </report>

</configuration>
-->

<routes xmlns:xsi="http://www.w3.org/2001/XMLSchema-instance" xsi:noNamespaceSchemaLocation="http://sumo.dlr.de/xsd/routes_file.xsd">
    <vehicle id="1" depart="0.20">
        <route edges="677966201#0 677966201#1 677966201#2 -182693028#1 -182693028#0 306191312#0 306191312#1 183479838#0 183479838#1 211489815 211489809#0 211489809#1 211489809#2 211489809#3 211489809#4 211489809#5 211489809#6 211489809#7 183056157#0 183056157#1 4356102 462641800#0 462641800#1 462641800#2 462641800#3 35085536#0 35085536#1 35085537 193420534 436943364#0 436943364#1 -188281273#2 -188281273#1"/>
    </vehicle>
    <vehicle id="2" depart="0.40">
        <route edges="-53876143 4356102 462641800#0 462641800#1 462641800#2 462641800#3 4358461#0 4358461#1 4358461#2 4358461#3 4362701#0 4362701#1 4362701#2 4362701#3 4362701#4"/>
    </vehicle>
    <vehicle id="3" depart="0.60">
        <route edges="-542471105#2 -542471105#1 -542471105#0 542471106 4358454#0 4358454#1 4358454#2 4369048#0 4369048#1 35085535#0 35085535#1 35085535#2 35085535#3 436945579#0 436945579#1 436945579#2 436945579#3 2263976#0 2263976#1 469810338 462641798 462641800#0 462641800#1 462641800#2 462641800#3 4358461#0 4358461#1 4358461#2 4358461#3 4362701#0 4362701#1 4362701#2 4362701#3 4362701#4 -211489820#5 -211489820#4 211489820#4"/>
    </vehicle>
    <vehicle id="4" depart="0.80">
        <route edges="-349937184#1 349937184#1 38446963 38446964 183056157#0 183056157#1 4356102 462641800#0 462641800#1 462641800#2 462641800#3 4358421#0 4358421#1 4358421#2 4358421#3 35085535#0 35085535#1 35085535#2"/>
    </vehicle>
    <vehicle id="5" depart="1.00">
        <route edges="-542471105#1 -542471105#0 542471106 4358454#0 4358454#1 4358454#2 4369048#0 4369048#1 35085535#0 35085535#1 35085535#2 35085535#3 436945579#0 436945579#1 436945579#2 436945579#3 2263976#0 2263976#1 469810338 462641798 462641800#0 462641800#1 462641800#2 462641800#3 35085536#0 35085536#1 211486426#0 211486426#1 211486426#2 211486426#3 211486426#4 211486426#5 211486426#6 211486426#7 211486426#8 669229892#0 669229892#1 232725808#0 232725808#1 211557609#0 211557609#1 211557609#2 211557609#3 211557609#4 211557609#5"/>
    </vehicle>
    <vehicle id="6" depart="1.20">
        <route edges="4370888 211557609#2 211557609#3 211557609#4 211557609#5 211557609#6 211557609#7 211557609#8 211557609#9 4376571#0 4376571#1 4376571#2 4369189 215065448#0 215065448#1 215065448#2 215065448#3 4369048#0 4369048#1 35085535#0 35085535#1 35085535#2 35085535#3 436945579#0 436945579#1 436945579#2 436945579#3 2263976#0 2263976#1 469810338 462641798 462641800#0 462641800#1 462641800#2 462641800#3 4358461#0 4358461#1 4358461#2 4358461#3 4358462#0 4358462#1 -4358462#1"/>
    </vehicle>
    <vehicle id="7" depart="1.40">
        <route edges="4362701#4 -211489820#5 -211489820#4 -211489820#3 -211489820#2 -211489820#1 -211489820#0 -299395401 -183479839#1 -183479839#0 183479838#0 183479838#1 211489815 211489809#0 211489809#1 211489809#2 211489809#3 211489809#4 211489809#5 211489809#6 211489809#7 183056157#0 183056157#1 4356102 462641800#0 462641800#1 462641800#2 462641800#3 35085536#0 35085536#1 211486426#0 211486426#1 211486426#2 211486426#3 211486426#4 211486426#5 211486426#6 211486426#7 211486426#8 669229892#0 669229892#1 -669229893#2 -669229893#1 -669229893#0 669229894#0"/>
    </vehicle>
    <vehicle id="9" depart="1.80">
        <route edges="-53638574 4358461#2 4358461#3 4362701#0 4362701#1 4362701#2 4362701#3 4362701#4"/>
    </vehicle>
    <vehicle id="10" depart="2.00">
        <route edges="-183479839#1 -183479839#0 183479838#0 183479838#1 211489815 211489809#0 211489809#1 211489809#2 211489809#3 211489809#4 211489809#5 211489809#6 211489809#7 211489823 4369035 4266580"/>
    </vehicle>
    <vehicle id="11" depart="2.20">
        <route edges="-4362704#0 4362704#0 4362704#1 4358459#0 4358459#1 4358459#2 4358459#3 4358459#4 299395401 211489820#0 211489820#1 4362733#0 4362733#1"/>
    </vehicle>
    <vehicle id="13" depart="2.60">
        <route edges="4360147 43491848#0 43491848#1 43491848#2 211490174 4369040#0 4369040#1 4369040#2 2263979 38446964 183056157#0 183056157#1 4356102 462641800#0 462641800#1 462641800#2 462641800#3 4358421#0 4358421#1 4358421#2 4358421#3 35085535#0 35085535#1 35085535#2 35085535#3 436945579#0 4358431"/>
    </vehicle>
    <vehicle id="14" depart="2.80">
        <route edges="-38310154#1 38310154#1 211557609#4 211557609#5 211557609#6 211557609#7 211557609#8 211557609#9 4376571#0 4376571#1 4376571#2 4369189 215065448#0 215065448#1 215065448#2 215065448#3 4369048#0 4369048#1 35085535#0 35085535#1 35085535#2 35085535#3 436945579#0 436945579#1 436945579#2 436945579#3 2263976#0 2263976#1 469810338 462641798 462641800#0 462641800#1 462641800#2 462641800#3 4358461#0 4358461#1 4358461#2 4358461#3 4358462#0 -4362731"/>
    </vehicle>
    <vehicle id="15" depart="3.00">
        <route edges="297206317#1 4362706 211489809#6 211489809#7 183056157#0 183056157#1 4356102 462641800#0 462641800#1 462641800#2 462641800#3 35085536#0 35085536#1 35085537 4376571#0 4376571#1 4376571#2 4369189 215065448#0 215065448#1 215065448#2 215065448#3 4356098#0 4356098#1 4356098#2 4356098#3 4356098#4 4356098#5 4358432#0 4358432#1"/>
    </vehicle>
    <vehicle id="16" depart="3.20">
        <route edges="-182693028#2 -182693028#1 -182693028#0 306191312#0 306191312#1 183479838#0 183479838#1 211489815 211489809#0 211489809#1 211489809#2 211489809#3 211489809#4 211489809#5 211489809#6 211489809#7 183056157#0 183056157#1 4356102 462641800#0 462641800#1 462641800#2 462641800#3 35085536#0 35085536#1 211486426#0 211486426#1 211486426#2 211486426#3 211486426#4 211486426#5 211486426#6 211486426#7 211486426#8 669229892#0 669229892#1 -669229893#2 -669229893#1 -669229893#0 669229894#0"/>
    </vehicle>
    <vehicle id="17" depart="3.40">
        <route edges="4362705#1 -4362705#1 211489809#4 211489809#5 211489809#6 211489809#7 183056157#0 183056157#1 4356102 462641800#0 462641800#1 462641800#2 462641800#3 35085536#0 35085536#1 35085537 193420534 436943364#0 436943364#1 -188281273#2 -188281273#1 -188281273#0 4253891 290405993 290405994#0 290405994#1 4253812#1 4253894#0 4253894#1 4254981#0 4254981#1"/>
    </vehicle>
    <vehicle id="18" depart="3.60">
        <route edges="4370889#0 4370889#1 4370889#2 4370889#3 436941633 38748498#7 399696957#0 399696957#1 188281273#0 188281273#1 188281273#2 43118736#0 43118736#1 43118736#2 4369189 215065448#0 215065448#1 215065448#2 215065448#3 4369048#0 4369048#1 35085535#0 35085535#1 35085535#2 35085535#3 436945579#0 436945579#1 436945579#2 436945579#3 53876136 43491848#0 43491848#1 43491848#2 211490174 4369040#0 4369040#1 4369040#2 2263979 211489807#0 211489807#1 -211489813 -4362706 675336438#0 675336438#1 675336438#2 2263973#0 4362704#0 4362704#1 4358459#0 4358459#1 4358459#2 4358459#3 4358459#4 299395401 -677965609#1 677965609#1"/>
    </vehicle>
    <vehicle id="19" depart="3.80">
        <route edges="4370888 211557609#2 211557609#3 211557609#4 211557609#5 211557609#6 211557609#7 211557609#8 211557609#9 4376571#0 4376571#1 4376571#2 4369189 215065448#0 215065448#1 215065448#2 215065448#3 4369048#0 4369048#1 35085535#0 35085535#1 35085535#2 35085535#3 436945579#0 436945579#1 436945579#2 436945579#3 53876136 43491848#0 43491848#1 43491848#2 211490174 4369040#0 4369040#1 4369040#2 2263979 211489807#0 211489807#1 297206318#0 297206318#1 232725462#0 232725462#1 211489814 182693028#0 -182693028#0"/>
    </vehicle>
    <vehicle id="20" depart="4.00">
        <route edges="43486254#1 211487026#0 211487026#1 4376580 542471105#0 -542471105#0 542471106 4358454#0 4358454#1 4358454#2 4369048#0 4369048#1 35085535#0 35085535#1 35085535#2 35085535#3 436945579#0 436945579#1 436945579#2 436945579#3 53876136 43491848#0 43491848#1 43491848#2 211490174 4369040#0 4369040#1 4369040#2 2263979 211489807#0 211489807#1 -211489813 -4362706 675336438#0 675336438#1"/>
    </vehicle>
    <vehicle id="22" depart="4.40">
        <route edges="211561198#1 -211489820#5 -211489820#4 -211489820#3 -211489820#2 -211489820#1 -211489820#0 -677965609#1 -677965609#0 -4362735"/>
    </vehicle>
    <vehicle id="24" depart="4.80">
        <route edges="4358420 35085535#1 35085535#2 35085535#3 436945579#0 436945579#1 436945579#2 436945579#3 2263976#0 2263976#1 469810338 462641798 462641800#0 462641800#1"/>
    </vehicle>
    <vehicle id="25" depart="5.00">
        <route edges="38748498#4 38748498#5 38748498#6 38748498#7 399696957#0 399696957#1 188281273#0 188281273#1 188281273#2 43118736#0 43118736#1 43118736#2 4369189 215065448#0 215065448#1 215065448#2 215065448#3 4369048#0 4369048#1 35085535#0 35085535#1 35085535#2 35085535#3 436945579#0 436945579#1 436945579#2 436945579#3 2263976#0 2263976#1 469810338 462641798 462641800#0 462641800#1 462641800#2 462641800#3 4358461#0 4358461#1 4358461#2 4358461#3 4358462#0 4358462#1 -4358462#1"/>
    </vehicle>
    <vehicle id="26" depart="5.20">
        <route edges="4362734 4362702#2 4362702#3 4362702#4 4362701#4 -211489820#5 -211489820#4 -211489820#3 -211489820#2 -211489820#1 -211489820#0 -299395401 -183479839#1 -183479839#0 183479838#0 183479838#1 211489815 211489817 -642019682#1 642019682#1"/>
    </vehicle>
    <vehicle id="27" depart="5.40">
        <route edges="4362735 677965609#0 677965609#1 211489820#0 -211489820#0 -299395401 -183479839#1 -183479839#0 183479838#0 183479838#1 211489815 211489809#0 211489809#1 211489809#2 211489809#3 4362705#1 2263973#0 2263973#1 -4358462#1 -4358462#0"/>
    </vehicle>
    <vehicle id="30" depart="6.00">
        <route edges="4356147 542468803 436945579#0 436945579#1 436945579#2 436945579#3 53876136 43491848#0 43491848#1 43491848#2 211490174 4369040#0 4369040#1 4369040#2 2263979 211489807#0 211489807#1 -211489813 211489809#6"/>
    </vehicle>
    <vehicle id="32" depart="6.40">
        <route edges="-642019682#1 642019682#1 211489814 306191312#0 306191312#1 183479838#0 183479838#1 211489815 211489809#0 211489809#1 211489809#2 211489809#3 211489809#4 211489809#5 211489809#6 211489809#7 211489823 4369035 2263979 211489807#0 211489807#1"/>
    </vehicle>
    <vehicle id="35" depart="7.00">
        <route edges="4259268 4370890#1 4370889#0 4370889#1 4370889#2 4370889#3 436941633 38748498#7 399696957#0 399696957#1 188281273#0 188281273#1 188281273#2 43118736#0 43118736#1 43118736#2 4369189 215065448#0 215065448#1 215065448#2 215065448#3 4369048#0 4369048#1 35085535#0 35085535#1 35085535#2 35085535#3 436945579#0"/>
    </vehicle>
    <vehicle id="36" depart="7.20">
        <route edges="4370890#1 -4370890#1 -4370890#0 4370943#0 4370943#1 4370943#2 232725809#0 232725809#1 669229893#0 669229893#1 669229893#2 -669229892#1 -669229892#0 211557608#0 211557608#1 211557608#2 211557608#3 211557608#4 211557608#5 211557608#6"/>
    </vehicle>
    <vehicle id="37" depart="7.40">
        <route edges="-542471105#2 -542471105#1 -542471105#0 542471106 4358454#0 4358454#1 4358454#2 4369048#0 4369048#1 35085535#0 35085535#1 35085535#2 35085535#3 436945579#0 436945579#1 436945579#2 436945579#3 2263976#0 2263976#1 469810338 462641798 462641800#0 462641800#1"/>
    </vehicle>
    <vehicle id="38" depart="7.60">
        <route edges="436938220#1 436938220#2 436938220#3 436941633 38748498#7 399696957#0 399696957#1 188281273#0 188281273#1 188281273#2 43118736#0 43118736#1 43118736#2 43486254#0 43486254#1 211487026#0 211487026#1 4376580 542471105#0 542471105#1"/>
    </vehicle>
    <vehicle id="41" depart="8.20">
        <route edges="-4370948#1 -4370948#0 38310154#1 211557609#4 211557609#5 211557609#6 211557609#7 211557609#8 211557609#9 4376571#0 4376571#1 4376571#2 4369189 215065448#0 215065448#1 215065448#2 215065448#3 4369048#0 4369048#1 35085535#0 35085535#1 35085535#2 35085535#3 436945579#0 436945579#1 436945579#2 436945579#3 53876136 43491848#0 43491848#1 43491848#2 211490174 4369040#0 4369040#1 4369040#2 4266580 -349937184#2 -349937184#1 -349937184#0 -4369036 4369410#0 349937188 349937187#1 349937186#2"/>
    </vehicle>
    <vehicle id="43" depart="8.60">
        <route edges="-349937184#3 -349937184#2 38446963 211489807#0 211489807#1 -211489813 -4362706 675336438#0 675336438#1 675336438#2 2263973#0 4362704#0 4362704#1 4358459#0 4358459#1 4358459#2 4358459#3 4358459#4 299395401 -677965609#1 -677965609#0 677965609#0"/>
    </vehicle>
    <vehicle id="44" depart="8.80">
        <route edges="4362701#0 4362701#1 211557608#2 211557608#3 211557608#4 211557608#5 211557608#6 -4362704#1 -4362704#0 2263973#1 2263973#2 297206317#0 -53876143 4356102 462641800#0 462641800#1 462641800#2 462641800#3 4358421#0 4358421#1 4358421#2 4358421#3 35085535#0 35085535#1 35085535#2 35085535#3 436945579#0 4358431 4358430 4356147"/>
    </vehicle>
    <vehicle id="45" depart="9.00">
        <route edges="4356147 542468803 436945579#0 4358431 4358430 23198010#0 23198010#1 4356098#2 4253972#0 4253972#1 -542471105#1 542471105#1"/>
    </vehicle>
    <vehicle id="47" depart="9.40">
        <route edges="4362701#4 -211489820#5 -211489820#4 -211489820#3 -211489820#2 -211489820#1 -211489820#0 -299395401 -183479839#1 -183479839#0 183479838#0 183479838#1 211489815 211489809#0 211489809#1 211489809#2 211489809#3"/>
    </vehicle>
    <vehicle id="49" depart="9.80">
        <route edges="232725462#0 232725462#1 211489814 306191312#0 306191312#1 183479839#0 4266560 677966201#0 677966201#1 -182693028#2"/>
    </vehicle>
    <vehicle id="50" depart="10.00">
        <route edges="349937186#2 349937186#0 349937187#0 -349937188 -4369410#0 4369036 349937184#0 349937184#1 38446963 38446964 183056157#0 183056157#1 4356102 462641800#0 462641800#1 462641800#2 462641800#3 35085536#0 35085536#1 35085537 193420534 436943364#0 436943364#1 -188281273#2 -188281273#1 -188281273#0 4253891 290405993 290405994#0 290405994#1 4253812#1 4253894#0 4253894#1 4254981#0"/>
    </vehicle>
    <vehicle id="51" depart="10.20">
        <route edges="675336438#1 675336438#2 -4362705#1 211489809#4 211489809#5 211489809#6 211489809#7 183056157#0 183056157#1 4356102 462641800#0 462641800#1 462641800#2 462641800#3 35085536#0 35085536#1 35085537 193420534 436943364#0 436943364#1 -188281273#2 -188281273#1 -188281273#0 436938229 436938220#0 436938220#1 436938220#2 436938220#3 436941633 4253890#0 4253890#1 4253830"/>
    </vehicle>
    <vehicle id="52" depart="10.40">
        <route edges="4370890#0 4370890#1 4370889#0 4370889#1 4370889#2 4370889#3 436941633 38748498#7 399696957#0 399696957#1 188281273#0 188281273#1 188281273#2 43118736#0 43118736#1 43118736#2 4369189 215065448#0 215065448#1 215065448#2 215065448#3 4369048#0 4369048#1 35085535#0 35085535#1 35085535#2 35085535#3 436945579#0 436945579#1 436945579#2 436945579#3 2263976#0 2263976#1 469810338 462641798 462641800#0 4358441"/>
    </vehicle>
    <vehicle id="53" depart="10.60">
        <route edges="-182693028#1 182693028#1 182693028#2 -182693028#2"/>
    </vehicle>
    <vehicle id="54" depart="10.80">
        <route edges="4362706 211489809#6 211489809#7 183056157#0 183056157#1 4356102 462641800#0 462641800#1 462641800#2 462641800#3 35085536#0 35085536#1 35085537 4376571#0 4376571#1 4376571#2 43486254#0 43486254#1 211487026#0 211487026#1 4376580 542471105#0 542471105#1"/>
    </vehicle>
    <vehicle id="58" depart="11.60">
        <route edges="4370948#0 -4370948#0 38310154#1 211557609#4 211557609#5 211557609#6 4370886 290405992 290405995#0 290405995#1 436938229 436938220#0 436938220#1 436938220#2 436938220#3 436941633 4253890#0 4253890#1"/>
    </vehicle>
    <vehicle id="59" depart="11.80">
        <route edges="211489809#1 211489809#2 211489809#3 4362705#1 2263973#0 2263973#1 -4358462#1 -4358462#0 4362701#0"/>
    </vehicle>
    <vehicle id="60" depart="12.00">
        <route edges="18791974 -4370890#1 -4370890#0 4370943#0 4370943#1 4370943#2 232725809#0 232725809#1 669229893#0 669229893#1 669229893#2 -669229892#1 -669229892#0 211557608#0 211557608#1 211557608#2 211557608#3 211557608#4 211557608#5 211557608#6 4358459#0 4358459#1 4358459#2 4358459#3 4358459#4 -183479839#1 4266560"/>
    </vehicle>
    <vehicle id="62" depart="12.40">
        <route edges="-349937184#3 -349937184#2 38446963 38446964 183056157#0 183056157#1 53876143"/>
    </vehicle>
    <vehicle id="63" depart="12.60">
        <route edges="4358441 -4358441 462641800#1 462641800#2 462641800#3 35085536#0 35085536#1 35085537 4376571#0 4376571#1 4376571#2 43486254#0 43486254#1 211487026#0 211487026#1 4376580 542471105#0 542471107"/>
    </vehicle>
    <vehicle id="64" depart="12.80">
        <route edges="349937184#1 38446963 38446964 183056157#0 183056157#1 4356102 462641800#0 462641800#1 462641800#2 462641800#3 35085536#0 35085536#1 35085537 193420534 436943364#0 436943364#1 -188281273#2 -188281273#1 -188281273#0 4253891 290405993 290405994#0 290405994#1 4253812#1"/>
    </vehicle>
    <vehicle id="66" depart="13.20">
        <route edges="-4480717#2 -4480717#1 -4480717#0 4358432#0 4358432#1 4358432#2 4358432#3 4358790#0 4358790#1 4356147 542468803 436945579#0 436945579#1 436945579#2 436945579#3 2263976#0 2263976#1 469810338 462641798 462641800#0 462641800#1 462641800#2 462641800#3 4358461#0 4358461#1 4358461#2 4358461#3 4362701#0 4362701#1 211557608#2 211557608#3 211557608#4 4362734 4362702#2 4362702#3"/>
    </vehicle>
    <vehicle id="68" depart="13.60">
        <route edges="542471105#2 -542471105#2 -542471105#1 -542471105#0 542471106 4358454#0 4358454#1 4358454#2 4369048#0 4369048#1 35085535#0 35085535#1 35085535#2 35085535#3 436945579#0 436945579#1 436945579#2 436945579#3 2263976#0 2263976#1 469810338 462641798 462641800#0 462641800#1 462641800#2 462641800#3 35085536#0 35085536#1 211486426#0 211486426#1 211486426#2 211486426#3 211486426#4"/>
    </vehicle>
    <vehicle id="69" depart="13.80">
        <route edges="4362701#4 -211489820#5 -211489820#4 -211489820#3 -211489820#2 -211489820#1 -211489820#0 -299395401 -183479839#1 -183479839#0 183479838#0 183479838#1 211489815 211489809#0 211489809#1 211489809#2 211489809#3 4362705#1 2263973#0 2263973#1 -4358462#1 -4362731"/>
    </vehicle>
    <vehicle id="70" depart="14.00">
        <route edges="211486426#3 211486426#4 211486426#5 211486426#6 211486426#7 211486426#8 669229892#0 669229892#1 232725808#0 232725808#1 211557609#0 211557609#1 211557609#2 211557609#3 211557609#4 211557609#5 211557609#6 211557609#7 211557609#8 211557609#9 193420534 436943364#0 436943364#1 -188281273#2 -188281273#1 -188281273#0 4253891 290405993 290405994#0 290405994#1 4253776"/>
    </vehicle>
    <vehicle id="71" depart="14.20">
        <route edges="35085536#0 35085536#1 35085537 4376571#0 4376571#1 4376571#2 4369189 215065448#0 215065448#1 215065448#2 215065448#3 4369048#0 4369048#1 35085535#0 35085535#1 35085535#2 35085535#3 436945579#0 436945579#1 436945579#2 436945579#3 53876136 43491848#0 43491848#1 43491848#2 211490174 4369040#0 4369040#1 4369040#2 4266580 -349937184#2 38446963"/>
    </vehicle>
    <vehicle id="73" depart="14.60">
        <route edges="211486426#6 211486426#7 211486426#8 211557608#0 211557608#1 211557608#2 211557608#3 211557608#4 211557608#5 211557608#6 4358459#0 4358459#1 4358459#2 4358459#3 4358459#4 -183479839#1 4266560 677966201#0 677966201#1 677966201#2 182693028#2"/>
    </vehicle>
    <vehicle id="74" depart="14.80">
        <route edges="542471105#2 -542471105#2 -542471105#1 -542471105#0 542471106 4358454#0 4358454#1 4358454#2 4369048#0 4369048#1 35085535#0 35085535#1 35085535#2 35085535#3 436945579#0 436945579#1 436945579#2 436945579#3 2263976#0 2263976#1 469810338 462641798 462641800#0 462641800#1 462641800#2 462641800#3 4358461#0 4358461#1 4358461#2 4358461#3 4362701#0 4362701#1 211557608#2 211557608#3 211557608#4 4362734 4362702#2 4362702#3"/>
    </vehicle>
    <vehicle id="75" depart="15.00">
        <route edges="4370889#0 4370889#1 4370889#2 4370889#3 436941633 38748498#7 399696957#0 399696957#1 436938229 436938220#0 436938220#1 436938220#2"/>
    </vehicle>
    <vehicle id="76" depart="15.20">
        <route edges="4253890#1 4253812#0 4253812#1 4253894#0 4253894#1 4254981#0 4254981#1 4254981#2 4254981#3 590640978 4358454#0 4358454#1 4358454#2 4356098#0 4356098#1 4356098#2 4356098#3 4356098#4 4356098#5 4358432#0 4358432#1 4358432#2"/>
    </vehicle>
    <vehicle id="78" depart="15.60">
        <route edges="2263973#1 2263973#2 297206317#0 -53876143 4356102 462641800#0 462641800#1 462641800#2 462641800#3 35085536#0 35085536#1 35085537 4376571#0 4376571#1 4376571#2 43486254#0 43486254#1 211487026#0 211487026#1 4376580 542471105#0 542471107"/>
    </vehicle>
    <vehicle id="79" depart="15.80">
        <route edges="675336438#1 675336438#2 2263973#0 4362704#0 4362704#1 4358459#0 4358459#1 4358459#2 4358459#3 4358459#4 299395401 211489820#0 211489820#1 211489820#2 211489820#3 211489820#4 4362737 -4369094"/>
    </vehicle>
    <vehicle id="81" depart="16.20">
        <route edges="297206317#0 -53876143 4356102 462641800#0 462641800#1 462641800#2 462641800#3 35085536#0 35085536#1 211486426#0 211486426#1 211486426#2 211486426#3 211486426#4 211486426#5 211486426#6 211486426#7 211486426#8 669229892#0 669229892#1 232725808#0 232725808#1 211557609#0 211557609#1 211557609#2"/>
    </vehicle>
    <vehicle id="82" depart="16.40">
        <route edges="-182693028#0 306191312#0 306191312#1 183479839#0 4266560 677966201#0"/>
    </vehicle>
    <vehicle id="83" depart="16.60">
        <route edges="-211489820#1 -211489820#0 -299395401 -183479839#1 -183479839#0 183479838#0 183479838#1 211489815 211489809#0 211489809#1 211489809#2 211489809#3 211489809#4 211489809#5 211489809#6 211489809#7 183056157#0 183056157#1 4356102 462641800#0 462641800#1 462641800#2 462641800#3 35085536#0 35085536#1 211486426#0 211486426#1 211486426#2 211486426#3 211486426#4 211486426#5 211486426#6"/>
    </vehicle>
    <vehicle id="84" depart="16.80">
        <route edges="-349937184#3 -349937184#2 38446963 211489807#0 211489807#1 -211489813 -4362706 675336438#0 675336438#1 675336438#2 2263973#0 4362704#0 4362704#1 4358459#0 4358459#1 4358459#2 4358459#3 4358459#4 299395401 211489820#0 211489820#1 4362733#0"/>
    </vehicle>
    <vehicle id="85" depart="17.00">
        <route edges="642019682#1 211489814 306191312#0 306191312#1 183479838#0 183479838#1 211489815 211489809#0 211489809#1 211489809#2 211489809#3 211489809#4 211489809#5 211489809#6 211489809#7 183056157#0 183056157#1 4356102 462641800#0 462641800#1 462641800#2 462641800#3 35085536#0 35085536#1 35085537 193420534 436943364#0 436943364#1 -188281273#2 -188281273#1 -188281273#0 436938229 436938220#0 436938220#1 436938220#2 436938220#3 436938220#4 436938220#5 436938220#6 436938220#7 436938220#8 436938220#9 436938220#10 436938220#11 436938220#12 436938220#13 436938220#14"/>
    </vehicle>
    <vehicle id="86" depart="17.20">
        <route edges="4253894#0 4253894#1 4254981#0 4254981#1 4254981#2 4254981#3 590640978 4358454#0 4358454#1 4358454#2 4369048#0 4369048#1 35085535#0 35085535#1 35085535#2 35085535#3 436945579#0 436945579#1 436945579#2 436945579#3 53876136 43491848#0 43491848#1 43491848#2 211490174 4369040#0 4369040#1 4369040#2 4266580 349937184#3"/>
    </vehicle>
    <vehicle id="87" depart="17.40">
        <route edges="642019682#0 642019682#1 211489814 306191312#0 306191312#1 183479839#0 183479839#1 299395401 211489820#0 211489820#1 4362733#0 4362733#1 4362702#1 4362702#2 4362702#3"/>
    </vehicle>
    <vehicle id="89" depart="17.80">
        <route edges="4254981#2 4254981#3 590640978 4358454#0 4358454#1 4358454#2 4356098#0 4356098#1 4356098#2 4356098#3"/>
    </vehicle>
    <vehicle id="90" depart="18.00">
        <route edges="-4358441 462641800#1 462641800#2 462641800#3 4358461#0 4358461#1 53638574"/>
    </vehicle>
    <vehicle id="91" depart="18.20">
        <route edges="38748498#1 38748498#2 38748498#3 38748498#4 38748498#5 38748498#6 38748498#7 399696957#0 399696957#1 188281273#0 188281273#1 188281273#2 43118736#0 43118736#1 43118736#2 4369189 215065448#0 215065448#1 215065448#2 215065448#3 4369048#0 4369048#1 35085535#0 35085535#1 35085535#2 35085535#3 436945579#0 436945579#1 436945579#2 436945579#3 53876136 43491848#0 43491848#1 43491848#2 211490174 4369040#0 4369040#1 4369040#2 2263979 211489807#0 211489807#1 297206318#0 297206318#1 232725462#0 232725462#1 211489814 306191312#0 306191312#1 183479839#0 4266560"/>
    </vehicle>
    <vehicle id="92" depart="18.40">
        <route edges="38748498#4 38748498#5 38748498#6 38748498#7 399696957#0 399696957#1 188281273#0 188281273#1 188281273#2 43118736#0 43118736#1 43118736#2 4369189 215065448#0 215065448#1 215065448#2 215065448#3 4369048#0 4369048#1 35085535#0 35085535#1 35085535#2 35085535#3 436945579#0 436945579#1 436945579#2 436945579#3 53876136 43491848#0 43491848#1 43491848#2 211490174 4369040#0 4369040#1 4369040#2 2263979 211489807#0 211489807#1 297206318#0 297206318#1 232725462#0 232725462#1 211489814 306191312#0 306191312#1 183479839#0 -183479839#0"/>
    </vehicle>
    <vehicle id="94" depart="18.80">
        <route edges="4362706 211489809#6 211489809#7 183056157#0 183056157#1 4356102 462641800#0 462641800#1 462641800#2 462641800#3 35085536#0 35085536#1 35085537 193420534 436943364#0 436943364#1 -188281273#2 -188281273#1 -188281273#0 4253891 290405993 290405994#0 290405994#1 4253812#1 4253894#0 4253894#1 4254981#0"/>
    </vehicle>
    <vehicle id="95" depart="19.00">
        <route edges="211557609#2 211557609#3 211557609#4 211557609#5 211557609#6 211557609#7 211557609#8 211557609#9 4376571#0 4376571#1 4376571#2 4369189 215065448#0 215065448#1 215065448#2 215065448#3 4369048#0 4369048#1 35085535#0 35085535#1 35085535#2 35085535#3 436945579#0 436945579#1 436945579#2 436945579#3 2263976#0 2263976#1 469810338 462641798 462641800#0 462641800#1 462641800#2 462641800#3 4358461#0 4358461#1 4358461#2 4358461#3 4358462#0 4358462#1 2263973#2"/>
    </vehicle>
    <vehicle id="96" depart="19.20">
        <route edges="211489809#3 211489809#4 -4266579 211489816 -349937184#0 -4369036 4369410#0 349937188 349937187#1 349937186#2 349937186#0"/>
    </vehicle>
    <vehicle id="97" depart="19.40">
        <route edges="-4356148 4358432#3 4358790#0 4358790#1 4356147 542468803 436945579#0 436945579#1 436945579#2 436945579#3 2263976#0 2263976#1 469810338 462641798 462641800#0 462641800#1 462641800#2 462641800#3 4358461#0 4358461#1"/>
    </vehicle>
    <vehicle id="98" depart="19.60">
        <route edges="4358462#1 2263973#2 297206317#0 297206317#1 4362706 211489809#6 211489809#7 183056157#0"/>
    </vehicle>
    <vehicle id="99" depart="19.80">
        <route edges="-4358462#1 4358462#1 2263973#2 297206317#0 297206317#1 675336438#0 675336438#1 675336438#2 -4362705#1 211489809#4"/>
    </vehicle>
    <vehicle id="100" depart="20.00">
        <route edges="2263973#1"/>
    </vehicle>
    <vehicle id="101" depart="20.20">
        <route edges="211557609#0 211557609#1 211557609#2 211557609#3 211557609#4 211557609#5 211557609#6 211557609#7 211557609#8 211557609#9 4376571#0 4376571#1 4376571#2 4369189 215065448#0 215065448#1 215065448#2 215065448#3 4369048#0 4369048#1 35085535#0 35085535#1 35085535#2 35085535#3 436945579#0 436945579#1 436945579#2 436945579#3 53876136 43491848#0 43491848#1 43491848#2 211490174 4369040#0 4369040#1 4369040#2 2263979 211489807#0 211489807#1 -211489813 -4362706 675336438#0 675336438#1 675336438#2 2263973#0 4362704#0 -4362704#0"/>
    </vehicle>
    <vehicle id="103" depart="20.60">
        <route edges="436938220#3 436941633 38748498#7 399696957#0 399696957#1 188281273#0 188281273#1 188281273#2 43118736#0 43118736#1 43118736#2 4369189 215065448#0 215065448#1 215065448#2 215065448#3 4369048#0 4369048#1 35085535#0 35085535#1 35085535#2 35085535#3 436945579#0 436945579#1 436945579#2 436945579#3 2263976#0 2263976#1 469810338 462641798 462641800#0 4358441"/>
    </vehicle>
    <vehicle id="104" depart="20.80">
        <route edges="4358462#1 2263973#2 297206317#0 -53876143 4356102 462641800#0 462641800#1 462641800#2 462641800#3 4358421#0 4358421#1 4358421#2 4358421#3 35085535#0 35085535#1 35085535#2 35085535#3 436945579#0 4358431"/>
    </vehicle>
    <vehicle id="105" depart="21.00">
        <route edges="542471105#3 -542471105#3 -542471105#2 -542471105#1 -542471105#0 542471106 4358454#0 4358454#1 4358454#2 4369048#0 4369048#1 35085535#0 35085535#1 35085535#2 35085535#3 436945579#0 436945579#1 436945579#2 436945579#3 53876136 43491848#0 43491848#1 43491848#2 211490174 4369040#0 4369040#1 4369040#2 4266580 349937184#3"/>
    </vehicle>
    <vehicle id="106" depart="21.20">
        <route edges="211489807#1 297206318#0 211489816 349937184#1 -349937184#1"/>
    </vehicle>
    <vehicle id="107" depart="21.40">
        <route edges="-542471105#4 -542471105#3 -542471105#2 -542471105#1 -542471105#0 542471106 4358454#0 4358454#1 4358454#2 4369048#0 4369048#1 35085535#0 35085535#1 35085535#2 35085535#3 436945579#0 436945579#1 436945579#2 436945579#3 53876136 43491848#0 43491848#1 43491848#2 211490174 4369040#0 4369040#1 4369040#2 2263979 211489807#0 211489807#1 -211489813 -4362706 675336438#0 675336438#1 675336438#2 2263973#0 4362704#0 4362704#1 4358459#0 4358459#1 4358459#2 4358459#3 4358459#4 299395401 211489820#0 211489820#1 4362733#0 4362733#1"/>
    </vehicle>
    <vehicle id="108" depart="21.60">